A VIA 1000
  xed2sdf           3D
 
 64 67  0  0  0  0  0  0  0  0999 V2000
   -0.1320   61.4670   80.1200 C   0  0  0  0  0  0  0  0  0  0  0  0
   -0.1690   61.7920   81.5890 C   0  0  0  0  0  0  0  0  0  0  0  0
   -1.2610   62.8640   81.9270 C   0  0  0  0  0  0  0  0  0  0  0  0
   -1.1140   63.0310   83.4050 C   0  0  0  0  0  0  0  0  0  0  0  0
   -1.7980   62.2800   84.3700 N   0  0  0  0  0  0  0  0  0  0  0  0
   -1.4140   62.6960   85.6120 N   0  0  0  0  0  0  0  0  0  0  0  0
   -1.9480   62.1110   86.8450 C   0  0  0  0  0  0  0  0  0  0  0  0
   -0.4950   63.7000   85.4400 C   0  0  0  0  0  0  0  0  0  0  0  0
    0.2600   64.5190   86.3460 C   0  0  0  0  0  0  0  0  0  0  0  0
    0.1800   64.4220   87.5490 O   0  0  0  0  0  0  0  0  0  0  0  0
    1.1250   65.4740   85.8160 N   0  0  0  0  0  0  0  0  0  0  0  0
    1.3080   65.6840   84.4420 C   0  0  0  0  0  0  0  0  0  0  0  0
    0.5970   64.9070   83.5200 N   0  0  0  0  0  0  0  0  0  0  0  0
   -0.2930   63.9280   84.0460 C   0  0  0  0  0  0  0  0  0  0  0  0
    2.2230   66.7020   84.0580 C   0  0  0  0  0  0  0  0  0  0  0  0
    1.7310   67.6550   83.0840 C   0  0  0  0  0  0  0  0  0  0  0  0
    2.5680   68.7580   82.6170 C   0  0  0  0  0  0  0  0  0  0  0  0
    3.9520   68.8600   83.1800 C   0  0  0  0  0  0  0  0  0  0  0  0
    4.4660   67.9110   84.1620 C   0  0  0  0  0  0  0  0  0  0  0  0
    3.6090   66.8060   84.6330 C   0  0  0  0  0  0  0  0  0  0  0  0
    4.0190   65.8300   85.6200 O   0  0  0  0  0  0  0  0  0  0  0  0
    5.3040   65.8030   86.2730 C   0  0  0  0  0  0  0  0  0  0  0  0
    5.2340   64.6230   87.2280 C   0  0  0  0  0  0  0  0  0  0  0  0
    2.0230   69.8310   81.5610 S   0  0  0  0  0  0  0  0  0  0  0  0
    2.3130   69.6000   80.2940 O   0  0  0  0  0  0  0  0  0  0  0  0
    0.7120   69.8610   81.6110 O   0  0  0  0  0  0  0  0  0  0  0  0
    2.6900   71.1590   82.1270 N   0  0  0  0  0  0  0  0  0  0  0  0
    1.7240   72.0870   82.9630 C   0  0  0  0  0  0  0  0  0  0  0  0
    0.8200   73.0570   82.1780 C   0  0  0  0  0  0  0  0  0  0  0  0
    1.4260   73.6860   80.9560 N   0  3  0  0  0  0  0  0  0  0  0  0
    1.5570   75.1560   81.2010 C   0  0  0  0  0  0  0  0  0  0  0  0
    2.7520   73.1450   80.4160 C   0  0  0  0  0  0  0  0  0  0  0  0
    3.5390   72.0920   81.2850 C   0  0  0  0  0  0  0  0  0  0  0  0
   -1.0200   61.1090   79.8320 H   0  0  0  0  0  0  0  0  0  0  0  0
   -2.9400   62.2341   86.8740 H   0  0  0  0  0  0  0  0  0  0  0  0
    4.2900   64.3000   87.2960 H   0  0  0  0  0  0  0  0  0  0  0  0
    0.6550   75.5490   81.3790 H   0  0  0  0  0  0  0  0  0  0  0  0
    0.0710   62.2940   79.5960 H   0  0  0  0  0  0  0  0  0  0  0  0
    0.5770   60.7820   79.9560 H   0  0  0  0  0  0  0  0  0  0  0  0
   -0.3650   60.9560   82.1010 H   0  0  0  0  0  0  0  0  0  0  0  0
    0.7260   62.1420   81.8670 H   0  0  0  0  0  0  0  0  0  0  0  0
   -1.0860   63.7230   81.4460 H   0  0  0  0  0  0  0  0  0  0  0  0
   -2.1760   62.5380   81.6890 H   0  0  0  0  0  0  0  0  0  0  0  0
   -1.7400   61.1330   86.8730 H   0  0  0  0  0  0  0  0  0  0  0  0
   -1.5280   62.5670   87.6300 H   0  0  0  0  0  0  0  0  0  0  0  0
    6.0370   65.6750   85.6050 H   0  0  0  0  0  0  0  0  0  0  0  0
    5.4650   66.6540   86.7740 H   0  0  0  0  0  0  0  0  0  0  0  0
    5.8080   63.8790   86.8880 H   0  0  0  0  0  0  0  0  0  0  0  0
    5.5570   64.9130   88.1290 H   0  0  0  0  0  0  0  0  0  0  0  0
    1.1310   71.4930   83.5060 H   0  0  0  0  0  0  0  0  0  0  0  0
    2.2890   72.6340   83.5800 H   0  0  0  0  0  0  0  0  0  0  0  0
    0.0050   72.5530   81.8920 H   0  0  0  0  0  0  0  0  0  0  0  0
    0.5470   73.7930   82.7980 H   0  0  0  0  0  0  0  0  0  0  0  0
    2.1440   75.3150   81.9950 H   0  0  0  0  0  0  0  0  0  0  0  0
    1.9600   75.5860   80.3930 H   0  0  0  0  0  0  0  0  0  0  0  0
    2.5610   72.7190   79.5320 H   0  0  0  0  0  0  0  0  0  0  0  0
    3.3590   73.9280   80.2760 H   0  0  0  0  0  0  0  0  0  0  0  0
    4.1480   72.5930   81.9000 H   0  0  0  0  0  0  0  0  0  0  0  0
    4.0900   71.5330   80.6660 H   0  0  0  0  0  0  0  0  0  0  0  0
    1.6460   66.0430   86.4530 H   0  0  0  0  0  0  0  0  0  0  0  0
    0.8030   67.5560   82.7250 H   0  0  0  0  0  0  0  0  0  0  0  0
    4.5450   69.6040   82.8720 H   0  0  0  0  0  0  0  0  0  0  0  0
    5.3970   68.0090   84.5150 H   0  0  0  0  0  0  0  0  0  0  0  0
    0.7850   73.4410   80.2290 H   0  0  0  0  0  0  0  0  0  0  0  0
  1  2  1  0
  2  3  1  0
  3  4  1  0
  4  5  2  0
  4 14  1  0
  5  6  1  0
  6  7  1  0
  6  8  1  0
  8  9  1  0
  8 14  2  0
  9 10  2  0
  9 11  1  0
 11 12  1  0
 12 13  2  0
 12 15  1  0
 13 14  1  0
 15 16  2  0
 15 20  1  0
 16 17  1  0
 17 18  2  0
 17 24  1  0
 18 19  1  0
 19 20  2  0
 20 21  1  0
 21 22  1  0
 22 23  1  0
 24 25  2  0
 24 26  2  0
 24 27  1  0
 27 28  1  0
 27 33  1  0
 28 29  1  0
 29 30  1  0
 30 31  1  0
 30 32  1  0
 32 33  1  0
  1 34  1  0
  1 38  1  0
  1 39  1  0
  2 40  1  0
  2 41  1  0
  3 42  1  0
  3 43  1  0
  7 35  1  0
  7 44  1  0
  7 45  1  0
 11 60  1  0
 16 61  1  0
 18 62  1  0
 19 63  1  0
 22 46  1  0
 22 47  1  0
 23 36  1  0
 23 48  1  0
 23 49  1  0
 28 50  1  0
 28 51  1  0
 29 52  1  0
 29 53  1  0
 30 64  1  0
 31 37  1  0
 31 54  1  0
 31 55  1  0
 32 56  1  0
 32 57  1  0
 33 58  1  0
 33 59  1  0
M  CHG  1  30   1
M  END
>  <Total Formal Charge>
1

>  <Favorite_cresset>
false

>  <Protein_cresset>
1UDT_P

>  <MW_cresset>
475.6

>  <#Atoms_cresset>
33

>  <SlogP_cresset>
1.5

>  <TPSA_cresset>
110.3

>  <Flexibility_cresset>
6.6

>  <#RB_cresset>
7

>  <Rof5_cresset>
0

>  <Confs_cresset>
0

>  <Poses_cresset>
0

>  <Activity (Primary)_cresset>
No Primary Activity Set

$$$$
