# Molecule written by the XED library from Cresset
@<TRIPOS>MOLECULE
A VIA 1000
    64     67      1
SMALL
USER_CHARGES
@<TRIPOS>ATOM
      1  C34        -0.1320   61.4670   80.1200 C.3       1 VIA1        0.0000
      2  C33        -0.1690   61.7920   81.5890 C.3       1 VIA1        0.0000
      3  C32        -1.2610   62.8640   81.9270 C.3       1 VIA1        0.0000
      4  C30        -1.1140   63.0310   83.4050 C.ar      1 VIA1        0.0000
      5  N29        -1.7980   62.2800   84.3700 N.2       1 VIA1        0.0000
      6  N28        -1.4140   62.6960   85.6120 N.pl3     1 VIA1        0.0000
      7  C31        -1.9480   62.1110   86.8450 C.3       1 VIA1        0.0000
      8  C24        -0.4950   63.7000   85.4400 C.ar      1 VIA1        0.0000
      9  C23         0.2600   64.5190   86.3460 C.2       1 VIA1        0.0000
     10  O27         0.1800   64.4220   87.5490 O.2       1 VIA1        0.0000
     11  N22         1.1250   65.4740   85.8160 N.am      1 VIA1        0.0000
     12  C21         1.3080   65.6840   84.4420 C.2       1 VIA1        0.0000
     13  N26         0.5970   64.9070   83.5200 N.2       1 VIA1        0.0000
     14  C25        -0.2930   63.9280   84.0460 C.ar      1 VIA1        0.0000
     15  C9          2.2230   66.7020   84.0580 C.ar      1 VIA1        0.0000
     16  C8          1.7310   67.6550   83.0840 C.ar      1 VIA1        0.0000
     17  C7          2.5680   68.7580   82.6170 C.ar      1 VIA1        0.0000
     18  C6          3.9520   68.8600   83.1800 C.ar      1 VIA1        0.0000
     19  C5          4.4660   67.9110   84.1620 C.ar      1 VIA1        0.0000
     20  C4          3.6090   66.8060   84.6330 C.ar      1 VIA1        0.0000
     21  O3          4.0190   65.8300   85.6200 O.3       1 VIA1        0.0000
     22  C2          5.3040   65.8030   86.2730 C.3       1 VIA1        0.0000
     23  C1          5.2340   64.6230   87.2280 C.3       1 VIA1        0.0000
     24  S10         2.0230   69.8310   81.5610 S.3       1 VIA1        0.0000
     25  O11         2.3130   69.6000   80.2940 O.2       1 VIA1        0.0000
     26  O12         0.7120   69.8610   81.6110 O.2       1 VIA1        0.0000
     27  N14         2.6900   71.1590   82.1270 N.3       1 VIA1        0.0000
     28  C19         1.7240   72.0870   82.9630 C.3       1 VIA1        0.0000
     29  C18         0.8200   73.0570   82.1780 C.3       1 VIA1        0.0000
     30  N17         1.4260   73.6860   80.9560 N.4       1 VIA1        0.0000
     31  C20         1.5570   75.1560   81.2010 C.3       1 VIA1        0.0000
     32  C16         2.7520   73.1450   80.4160 C.3       1 VIA1        0.0000
     33  C15         3.5390   72.0920   81.2850 C.3       1 VIA1        0.0000
     34 H341        -1.0200   61.1090   79.8320 H         1 VIA1        0.0000
     35 H311        -2.9400   62.2341   86.8740 H         1 VIA1        0.0000
     36  H11         4.2900   64.3000   87.2960 H         1 VIA1        0.0000
     37 H201         0.6550   75.5490   81.3790 H         1 VIA1        0.0000
     38 H342         0.0710   62.2940   79.5960 H         1 VIA1        0.0000
     39 H343         0.5770   60.7820   79.9560 H         1 VIA1        0.0000
     40 H332        -0.3650   60.9560   82.1010 H         1 VIA1        0.0000
     41 H333         0.7260   62.1420   81.8670 H         1 VIA1        0.0000
     42 H322        -1.0860   63.7230   81.4460 H         1 VIA1        0.0000
     43 H323        -2.1760   62.5380   81.6890 H         1 VIA1        0.0000
     44 H312        -1.7400   61.1330   86.8730 H         1 VIA1        0.0000
     45 H313        -1.5280   62.5670   87.6300 H         1 VIA1        0.0000
     46  H           6.0370   65.6750   85.6050 H         1 VIA1        0.0000
     47  H23         5.4650   66.6540   86.7740 H         1 VIA1        0.0000
     48  H12         5.8080   63.8790   86.8880 H         1 VIA1        0.0000
     49  H13         5.5570   64.9130   88.1290 H         1 VIA1        0.0000
     50 H192         1.1310   71.4930   83.5060 H         1 VIA1        0.0000
     51 H193         2.2890   72.6340   83.5800 H         1 VIA1        0.0000
     52 H182         0.0050   72.5530   81.8920 H         1 VIA1        0.0000
     53 H183         0.5470   73.7930   82.7980 H         1 VIA1        0.0000
     54 H202         2.1440   75.3150   81.9950 H         1 VIA1        0.0000
     55 H203         1.9600   75.5860   80.3930 H         1 VIA1        0.0000
     56 H162         2.5610   72.7190   79.5320 H         1 VIA1        0.0000
     57 H163         3.3590   73.9280   80.2760 H         1 VIA1        0.0000
     58 H152         4.1480   72.5930   81.9000 H         1 VIA1        0.0000
     59 H153         4.0900   71.5330   80.6660 H         1 VIA1        0.0000
     60  H22         1.6460   66.0430   86.4530 H         1 VIA1        0.0000
     61  H8          0.8030   67.5560   82.7250 H         1 VIA1        0.0000
     62  H6          4.5450   69.6040   82.8720 H         1 VIA1        0.0000
     63  H5          5.3970   68.0090   84.5150 H         1 VIA1        0.0000
     64  H17         0.7850   73.4410   80.2290 H         1 VIA1        0.0000
@<TRIPOS>BOND
     1      1      2 1 
     2      2      3 1 
     3      3      4 1 
     4      4      5 ar
     5      4     14 ar
     6      5      6 ar
     7      6      7 1 
     8      6      8 ar
     9      8      9 1 
    10      8     14 ar
    11      9     10 2 
    12      9     11 am
    13     11     12 am
    14     12     13 2 
    15     12     15 1 
    16     13     14 1 
    17     15     16 ar
    18     15     20 ar
    19     16     17 ar
    20     17     18 ar
    21     17     24 1 
    22     18     19 ar
    23     19     20 ar
    24     20     21 1 
    25     21     22 1 
    26     22     23 1 
    27     24     25 2 
    28     24     26 2 
    29     24     27 1 
    30     27     28 1 
    31     27     33 1 
    32     28     29 1 
    33     29     30 1 
    34     30     31 1 
    35     30     32 1 
    36     32     33 1 
    37      1     34 1 
    38      1     38 1 
    39      1     39 1 
    40      2     40 1 
    41      2     41 1 
    42      3     42 1 
    43      3     43 1 
    44      7     35 1 
    45      7     44 1 
    46      7     45 1 
    47     11     60 1 
    48     16     61 1 
    49     18     62 1 
    50     19     63 1 
    51     22     46 1 
    52     22     47 1 
    53     23     36 1 
    54     23     48 1 
    55     23     49 1 
    56     28     50 1 
    57     28     51 1 
    58     29     52 1 
    59     29     53 1 
    60     30     64 1 
    61     31     37 1 
    62     31     54 1 
    63     31     55 1 
    64     32     56 1 
    65     32     57 1 
    66     33     58 1 
    67     33     59 1 
@<TRIPOS>SUBSTRUCTURE
     1 VIA1         1 MOLECULE 1 A  VIA 
