CHEMBL430421
  -OEChem-07121202283D

 67 70  0     0  0  0  0  0  0999 V2000
   -0.1121    2.1485    0.0018 C   0  0  0  0  0  0  0  0  0  0  0  0
    0.0765    0.7379   -0.1278 O   0  0  0  0  0  0  0  0  0  0  0  0
   -1.0427   -0.0338   -0.1649 C   0  0  0  0  0  0  0  0  0  0  0  0
   -2.2913    0.5554   -0.0841 C   0  0  0  0  0  0  0  0  0  0  0  0
   -3.4401   -0.2376   -0.1222 C   0  0  0  0  0  0  0  0  0  0  0  0
   -3.3249   -1.6241   -0.2419 C   0  0  0  0  0  0  0  0  0  0  0  0
   -2.0740   -2.2086   -0.3223 C   0  0  0  0  0  0  0  0  0  0  0  0
   -0.9307   -1.4155   -0.2898 C   0  0  0  0  0  0  0  0  0  0  0  0
    0.2980   -1.9920   -0.3751 O   0  0  0  0  0  0  0  0  0  0  0  0
    0.9197   -2.3788    0.8521 C   0  0  0  0  0  0  0  0  0  0  0  0
   -1.9612   -3.5588   -0.4388 O   0  0  0  0  0  0  0  0  0  0  0  0
   -3.1759   -4.3109   -0.4718 C   0  0  0  0  0  0  0  0  0  0  0  0
   -4.7755    0.3895   -0.0356 C   0  0  0  0  0  0  0  0  0  0  0  0
   -5.1891    1.0974    1.1855 C   0  0  0  0  0  0  0  0  0  0  0  0
   -4.3462    1.2006    2.2895 C   0  0  0  0  0  0  0  0  0  0  0  0
   -4.7760    1.8758    3.4169 C   0  0  0  0  0  0  0  0  0  0  0  0
   -6.0488    2.4537    3.4551 C   0  0  0  0  0  0  0  0  0  0  0  0
   -6.8953    2.3589    2.3671 C   0  0  0  0  0  0  0  0  0  0  0  0
   -6.4755    1.6816    1.2232 C   0  0  0  0  0  0  0  0  0  0  0  0
   -7.3427    1.5574    0.0440 C   0  0  0  0  0  0  0  0  0  0  0  0
   -8.4552    2.0521    0.0510 O   0  0  0  0  0  0  0  0  0  0  0  0
   -6.9062    0.8965   -1.0443 N   0  0  0  0  0  0  0  0  0  0  0  0
   -5.6509    0.3238   -1.1028 C   0  0  0  0  0  0  0  0  0  0  0  0
   -5.2396   -0.3759   -2.3239 C   0  0  0  0  0  0  0  0  0  0  0  0
   -5.5509   -1.5394   -2.4922 O   0  0  0  0  0  0  0  0  0  0  0  0
   -4.5157    0.2711   -3.2608 O   0  0  0  0  0  0  0  0  0  0  0  0
   -4.1496   -0.4719   -4.4252 C   0  0  0  0  0  0  0  0  0  0  0  0
   -7.7898    0.7863   -2.2077 C   0  0  0  0  0  0  0  0  0  0  0  0
   -8.1383    2.1911   -2.7415 C   0  0  0  0  0  0  0  0  0  0  0  0
   -9.6166    2.0718   -3.1881 C   0  0  0  0  0  0  0  0  0  0  0  0
  -10.2299    1.1572   -2.0989 C   0  0  0  0  0  0  0  0  0  0  0  0
   -9.1197    0.1289   -1.7991 C   0  0  0  0  0  0  0  0  0  0  0  0
   -6.4567    3.1132    4.5711 O   0  0  0  0  0  0  0  0  0  0  0  0
   -7.7678    3.6809    4.5465 C   0  0  0  0  0  0  0  0  0  0  0  0
   -3.9563    1.9782    4.4951 O   0  0  0  0  0  0  0  0  0  0  0  0
   -2.6694    1.3657    4.3922 C   0  0  0  0  0  0  0  0  0  0  0  0
    0.8582    2.6448    0.0187 H   0  0  0  0  0  0  0  0  0  0  0  0
   -0.6938    2.5164   -0.8435 H   0  0  0  0  0  0  0  0  0  0  0  0
   -0.6447    2.3602    0.9290 H   0  0  0  0  0  0  0  0  0  0  0  0
   -2.3777    1.6280    0.0087 H   0  0  0  0  0  0  0  0  0  0  0  0
   -4.2119   -2.2396   -0.2712 H   0  0  0  0  0  0  0  0  0  0  0  0
    0.2901   -3.1057    1.3651 H   0  0  0  0  0  0  0  0  0  0  0  0
    1.8921   -2.8243    0.6421 H   0  0  0  0  0  0  0  0  0  0  0  0
    1.0512   -1.5012    1.4851 H   0  0  0  0  0  0  0  0  0  0  0  0
   -3.7329   -4.1420    0.4497 H   0  0  0  0  0  0  0  0  0  0  0  0
   -3.7772   -3.9927   -1.3234 H   0  0  0  0  0  0  0  0  0  0  0  0
   -2.9439   -5.3717   -0.5670 H   0  0  0  0  0  0  0  0  0  0  0  0
   -3.3625    0.7554    2.2652 H   0  0  0  0  0  0  0  0  0  0  0  0
   -7.8773    2.8070    2.4028 H   0  0  0  0  0  0  0  0  0  0  0  0
   -3.5719    0.1645   -5.0955 H   0  0  0  0  0  0  0  0  0  0  0  0
   -3.5479   -1.3324   -4.1328 H   0  0  0  0  0  0  0  0  0  0  0  0
   -5.0498   -0.8145   -4.9355 H   0  0  0  0  0  0  0  0  0  0  0  0
   -7.3071    0.1986   -2.9885 H   0  0  0  0  0  0  0  0  0  0  0  0
   -8.0373    2.9353   -1.9515 H   0  0  0  0  0  0  0  0  0  0  0  0
   -7.5028    2.4453   -3.5898 H   0  0  0  0  0  0  0  0  0  0  0  0
  -10.0999    3.0488   -3.1892 H   0  0  0  0  0  0  0  0  0  0  0  0
   -9.6869    1.6038   -4.1700 H   0  0  0  0  0  0  0  0  0  0  0  0
  -10.4668    1.7343   -1.2051 H   0  0  0  0  0  0  0  0  0  0  0  0
  -11.1209    0.6568   -2.4783 H   0  0  0  0  0  0  0  0  0  0  0  0
   -9.2828   -0.7774   -2.3823 H   0  0  0  0  0  0  0  0  0  0  0  0
   -9.1077   -0.1081   -0.7353 H   0  0  0  0  0  0  0  0  0  0  0  0
   -7.9669    4.1770    5.4965 H   0  0  0  0  0  0  0  0  0  0  0  0
   -7.8341    4.4073    3.7364 H   0  0  0  0  0  0  0  0  0  0  0  0
   -8.5026    2.8916    4.3878 H   0  0  0  0  0  0  0  0  0  0  0  0
   -2.1177    1.5213    5.3193 H   0  0  0  0  0  0  0  0  0  0  0  0
   -2.7888    0.2967    4.2156 H   0  0  0  0  0  0  0  0  0  0  0  0
   -2.1199    1.8117    3.5632 H   0  0  0  0  0  0  0  0  0  0  0  0
  1  2  1  0  0  0  0
  1 37  1  0  0  0  0
  1 38  1  0  0  0  0
  1 39  1  0  0  0  0
  2  3  1  0  0  0  0
  3  8  2  0  0  0  0
  3  4  1  0  0  0  0
  4  5  2  0  0  0  0
  4 40  1  0  0  0  0
  5  6  1  0  0  0  0
  5 13  1  0  0  0  0
  6  7  2  0  0  0  0
  6 41  1  0  0  0  0
  7  8  1  0  0  0  0
  7 11  1  0  0  0  0
  8  9  1  0  0  0  0
  9 10  1  0  0  0  0
 10 42  1  0  0  0  0
 10 43  1  0  0  0  0
 10 44  1  0  0  0  0
 11 12  1  0  0  0  0
 12 45  1  0  0  0  0
 12 46  1  0  0  0  0
 12 47  1  0  0  0  0
 13 23  2  0  0  0  0
 13 14  1  0  0  0  0
 14 19  2  0  0  0  0
 14 15  1  0  0  0  0
 15 16  2  0  0  0  0
 15 48  1  0  0  0  0
 16 17  1  0  0  0  0
 16 35  1  0  0  0  0
 17 18  2  0  0  0  0
 17 33  1  0  0  0  0
 18 19  1  0  0  0  0
 18 49  1  0  0  0  0
 19 20  1  0  0  0  0
 20 21  2  0  0  0  0
 20 22  1  0  0  0  0
 22 23  1  0  0  0  0
 22 28  1  0  0  0  0
 23 24  1  0  0  0  0
 24 25  2  0  0  0  0
 24 26  1  0  0  0  0
 26 27  1  0  0  0  0
 27 50  1  0  0  0  0
 27 51  1  0  0  0  0
 27 52  1  0  0  0  0
 28 32  1  0  0  0  0
 28 29  1  0  0  0  0
 28 53  1  0  0  0  0
 29 30  1  0  0  0  0
 29 54  1  0  0  0  0
 29 55  1  0  0  0  0
 30 31  1  0  0  0  0
 30 56  1  0  0  0  0
 30 57  1  0  0  0  0
 31 32  1  0  0  0  0
 31 58  1  0  0  0  0
 31 59  1  0  0  0  0
 32 60  1  0  0  0  0
 32 61  1  0  0  0  0
 33 34  1  0  0  0  0
 34 62  1  0  0  0  0
 34 63  1  0  0  0  0
 34 64  1  0  0  0  0
 35 36  1  0  0  0  0
 36 65  1  0  0  0  0
 36 66  1  0  0  0  0
 36 67  1  0  0  0  0
M  END
$$$$
CHEMBL286905
  -OEChem-07121202283D

 74 81  0     1  0  0  0  0  0999 V2000
    0.0301    0.9261   -0.1972 C   0  0  0  0  0  0  0  0  0  0  0  0
    1.2028    1.6579   -0.2130 C   0  0  0  0  0  0  0  0  0  0  0  0
    2.4230    1.0086   -0.1907 C   0  0  0  0  0  0  0  0  0  0  0  0
    2.4704   -0.3724   -0.1520 C   0  0  0  0  0  0  0  0  0  0  0  0
    1.2977   -1.1041   -0.1353 C   0  0  0  0  0  0  0  0  0  0  0  0
    0.0776   -0.4549   -0.1591 C   0  0  0  0  0  0  0  0  0  0  0  0
    3.8006   -1.0803   -0.1287 C   0  0  0  0  0  0  0  0  0  0  0  0
    4.2291   -1.2717    1.2634 N   0  3  0  0  0  0  0  0  0  0  0  0
    4.4650    0.0367    1.8854 C   0  0  0  0  0  0  0  0  0  0  0  0
    4.8330   -0.1535    3.3585 C   0  0  0  0  0  0  0  0  0  0  0  0
    6.1033   -1.0033    3.4559 C   0  0  0  0  0  0  0  0  0  0  0  0
    5.8701   -2.3364    2.7392 C   0  0  0  0  0  0  0  0  0  0  0  0
    5.4636   -2.0653    1.2891 C   0  0  0  0  0  0  0  0  0  0  0  0
    6.4186   -1.2532    4.8646 N   0  0  0  0  0  0  0  0  0  0  0  0
    5.4375   -1.9599    5.6711 C   0  0  0  0  0  0  0  0  0  0  0  0
    5.9255   -2.2060    7.0616 C   0  0  0  0  0  0  0  0  0  0  0  0
    5.1958   -2.8111    7.8182 O   0  0  0  0  0  0  0  0  0  0  0  0
    7.1104   -1.8054    7.5272 N   0  0  0  0  0  0  0  0  0  0  0  0
    8.0449   -0.9983    6.7439 C   0  0  1  0  0  0  0  0  0  0  0  0
    9.0134   -1.4983    6.7275 H   0  0  0  0  0  0  0  0  0  0  0  0
    7.5899   -0.8244    5.3309 C   0  0  0  0  0  0  0  0  0  0  0  0
    8.3328   -0.2528    4.5613 O   0  0  0  0  0  0  0  0  0  0  0  0
    8.2078    0.3745    7.4116 C   0  0  0  0  0  0  0  0  0  0  0  0
    8.3993    0.1741    8.8932 C   0  0  0  0  0  0  0  0  0  0  0  0
    8.9312    1.1079    9.8648 C   0  0  0  0  0  0  0  0  0  0  0  0
    9.4129    2.4162    9.7572 C   0  0  0  0  0  0  0  0  0  0  0  0
    9.8509    3.0132   10.9135 C   0  0  0  0  0  0  0  0  0  0  0  0
    9.8223    2.3604   12.1351 C   0  0  0  0  0  0  0  0  0  0  0  0
    9.3497    1.0666   12.2705 C   0  0  0  0  0  0  0  0  0  0  0  0
    8.8977    0.4355   11.1134 C   0  0  0  0  0  0  0  0  0  0  0  0
    8.3802   -0.8082   10.8913 N   0  0  0  0  0  0  0  0  0  0  0  0
    8.2403   -1.4842   11.5728 H   0  0  0  0  0  0  0  0  0  0  0  0
    8.0877   -0.9574    9.5616 C   0  0  0  0  0  0  0  0  0  0  0  0
    7.5087   -2.1867    8.8989 C   0  0  1  0  0  0  0  0  0  0  0  0
    8.2602   -2.9753    8.8605 H   0  0  0  0  0  0  0  0  0  0  0  0
    6.3037   -2.6633    9.6680 C   0  0  0  0  0  0  0  0  0  0  0  0
    6.2105   -3.9881   10.0525 C   0  0  0  0  0  0  0  0  0  0  0  0
    5.1073   -4.4300   10.7586 C   0  0  0  0  0  0  0  0  0  0  0  0
    4.0914   -3.5454   11.0824 C   0  0  0  0  0  0  0  0  0  0  0  0
    4.1852   -2.2109   10.6951 C   0  0  0  0  0  0  0  0  0  0  0  0
    5.2965   -1.7738    9.9926 C   0  0  0  0  0  0  0  0  0  0  0  0
    3.0713   -1.5516   11.1284 O   0  0  0  0  0  0  0  0  0  0  0  0
    2.1080   -2.5792   11.4269 C   0  0  0  0  0  0  0  0  0  0  0  0
    2.9187   -3.7220   11.7585 O   0  0  0  0  0  0  0  0  0  0  0  0
   -0.9232    1.4335   -0.2102 H   0  0  0  0  0  0  0  0  0  0  0  0
    1.1657    2.7368   -0.2432 H   0  0  0  0  0  0  0  0  0  0  0  0
    3.3392    1.5802   -0.2038 H   0  0  0  0  0  0  0  0  0  0  0  0
    1.3348   -2.1831   -0.1055 H   0  0  0  0  0  0  0  0  0  0  0  0
   -0.8386   -1.0265   -0.1464 H   0  0  0  0  0  0  0  0  0  0  0  0
    3.7045   -2.0506   -0.6159 H   0  0  0  0  0  0  0  0  0  0  0  0
    4.5410   -0.4800   -0.6574 H   0  0  0  0  0  0  0  0  0  0  0  0
    5.2817    0.5418    1.3696 H   0  0  0  0  0  0  0  0  0  0  0  0
    3.5611    0.6415    1.8124 H   0  0  0  0  0  0  0  0  0  0  0  0
    5.0096    0.8190    3.8181 H   0  0  0  0  0  0  0  0  0  0  0  0
    4.0168   -0.6583    3.8753 H   0  0  0  0  0  0  0  0  0  0  0  0
    6.9320   -0.4757    2.9837 H   0  0  0  0  0  0  0  0  0  0  0  0
    6.7878   -2.9242    2.7561 H   0  0  0  0  0  0  0  0  0  0  0  0
    5.0754   -2.8865    3.2431 H   0  0  0  0  0  0  0  0  0  0  0  0
    5.2970   -3.0123    0.7758 H   0  0  0  0  0  0  0  0  0  0  0  0
    6.2590   -1.5154    0.7860 H   0  0  0  0  0  0  0  0  0  0  0  0
    4.5235   -1.3677    5.7162 H   0  0  0  0  0  0  0  0  0  0  0  0
    5.2146   -2.9169    5.1994 H   0  0  0  0  0  0  0  0  0  0  0  0
    9.0784    0.8819    6.9960 H   0  0  0  0  0  0  0  0  0  0  0  0
    7.3147    0.9742    7.2364 H   0  0  0  0  0  0  0  0  0  0  0  0
    9.4395    2.9327    8.8091 H   0  0  0  0  0  0  0  0  0  0  0  0
   10.2300    4.0235   10.8693 H   0  0  0  0  0  0  0  0  0  0  0  0
   10.1814    2.8788   13.0119 H   0  0  0  0  0  0  0  0  0  0  0  0
    9.3317    0.5692   13.2290 H   0  0  0  0  0  0  0  0  0  0  0  0
    7.0011   -4.6792    9.8004 H   0  0  0  0  0  0  0  0  0  0  0  0
    5.0371   -5.4654   11.0577 H   0  0  0  0  0  0  0  0  0  0  0  0
    5.3740   -0.7386    9.6948 H   0  0  0  0  0  0  0  0  0  0  0  0
    1.4893   -2.2892   12.2762 H   0  0  0  0  0  0  0  0  0  0  0  0
    1.4888   -2.7889   10.5547 H   0  0  0  0  0  0  0  0  0  0  0  0
    3.5068   -1.7586    1.7726 H   0  0  0  0  0  0  0  0  0  0  0  0
  1  6  2  0  0  0  0
  1  2  1  0  0  0  0
  1 45  1  0  0  0  0
  2  3  2  0  0  0  0
  2 46  1  0  0  0  0
  3  4  1  0  0  0  0
  3 47  1  0  0  0  0
  4  5  2  0  0  0  0
  4  7  1  0  0  0  0
  5  6  1  0  0  0  0
  5 48  1  0  0  0  0
  6 49  1  0  0  0  0
  7  8  1  0  0  0  0
  7 50  1  0  0  0  0
  7 51  1  0  0  0  0
  8 13  1  0  0  0  0
  8  9  1  0  0  0  0
  8 74  1  0  0  0  0
  9 10  1  0  0  0  0
  9 52  1  0  0  0  0
  9 53  1  0  0  0  0
 10 11  1  0  0  0  0
 10 54  1  0  0  0  0
 10 55  1  0  0  0  0
 11 12  1  0  0  0  0
 11 14  1  0  0  0  0
 11 56  1  0  0  0  0
 12 13  1  0  0  0  0
 12 57  1  0  0  0  0
 12 58  1  0  0  0  0
 13 59  1  0  0  0  0
 13 60  1  0  0  0  0
 14 21  1  0  0  0  0
 14 15  1  0  0  0  0
 15 16  1  0  0  0  0
 15 61  1  0  0  0  0
 15 62  1  0  0  0  0
 16 17  2  0  0  0  0
 16 18  1  0  0  0  0
 18 34  1  0  0  0  0
 18 19  1  0  0  0  0
 19 20  1  0  0  0  0
 19 21  1  0  0  0  0
 19 23  1  0  0  0  0
 21 22  2  0  0  0  0
 23 24  1  0  0  0  0
 23 63  1  0  0  0  0
 23 64  1  0  0  0  0
 24 33  2  0  0  0  0
 24 25  1  0  0  0  0
 25 30  2  0  0  0  0
 25 26  1  0  0  0  0
 26 27  2  0  0  0  0
 26 65  1  0  0  0  0
 27 28  1  0  0  0  0
 27 66  1  0  0  0  0
 28 29  2  0  0  0  0
 28 67  1  0  0  0  0
 29 30  1  0  0  0  0
 29 68  1  0  0  0  0
 30 31  1  0  0  0  0
 31 32  1  0  0  0  0
 31 33  1  0  0  0  0
 33 34  1  0  0  0  0
 34 35  1  0  0  0  0
 34 36  1  0  0  0  0
 36 41  2  0  0  0  0
 36 37  1  0  0  0  0
 37 38  2  0  0  0  0
 37 69  1  0  0  0  0
 38 39  1  0  0  0  0
 38 70  1  0  0  0  0
 39 44  1  0  0  0  0
 39 40  2  0  0  0  0
 40 41  1  0  0  0  0
 40 42  1  0  0  0  0
 41 71  1  0  0  0  0
 42 43  1  0  0  0  0
 43 44  1  0  0  0  0
 43 72  1  0  0  0  0
 43 73  1  0  0  0  0
M  CHG  1   8   1
M  END
$$$$
CHEMBL540031
  -OEChem-07121202283D

 73 77  0     0  0  0  0  0  0999 V2000
   -3.2484   -6.2536   -3.3065 C   0  0  0  0  0  0  0  0  0  0  0  0
   -2.5369   -4.9742   -3.6645 C   0  0  0  0  0  0  0  0  0  0  0  0
   -1.5699   -4.4697   -2.8154 C   0  0  0  0  0  0  0  0  0  0  0  0
   -0.9214   -3.2922   -3.1540 C   0  0  0  0  0  0  0  0  0  0  0  0
   -1.2713   -2.6633   -4.3394 C   0  0  0  0  0  0  0  0  0  0  0  0
   -2.2478   -3.2273   -5.1380 C   0  0  0  0  0  0  0  0  0  0  0  0
   -2.8402   -4.3520   -4.7867 N   0  0  0  0  0  0  0  0  0  0  0  0
    0.1383   -2.7091   -2.2551 C   0  0  0  0  0  0  0  0  0  0  0  0
    1.4623   -3.1102   -2.7370 N   0  0  0  0  0  0  0  0  0  0  0  0
    2.1373   -2.2752   -3.6031 C   0  0  0  0  0  0  0  0  0  0  0  0
    3.3893   -2.6006   -4.0910 C   0  0  0  0  0  0  0  0  0  0  0  0
    4.0113   -3.8645   -3.6749 C   0  0  0  0  0  0  0  0  0  0  0  0
    5.2766   -4.2499   -4.1335 C   0  0  0  0  0  0  0  0  0  0  0  0
    5.7849   -5.4438   -3.6967 C   0  0  0  0  0  0  0  0  0  0  0  0
    5.0388   -6.2330   -2.8187 C   0  0  0  0  0  0  0  0  0  0  0  0
    3.8473   -5.8548   -2.3960 N   0  0  0  0  0  0  0  0  0  0  0  0
    3.3098   -4.7068   -2.7894 C   0  0  0  0  0  0  0  0  0  0  0  0
    1.9812   -4.2782   -2.3155 C   0  0  0  0  0  0  0  0  0  0  0  0
    1.3525   -4.9819   -1.5467 O   0  0  0  0  0  0  0  0  0  0  0  0
    5.5496   -7.4140   -2.3916 O   0  0  0  0  0  0  0  0  0  0  0  0
    4.7453   -8.1822   -1.4945 C   0  0  0  0  0  0  0  0  0  0  0  0
    5.4709   -9.4521   -1.1313 C   0  0  0  0  0  0  0  0  0  0  0  0
    6.7241   -9.6980   -1.6600 C   0  0  0  0  0  0  0  0  0  0  0  0
    7.3831  -10.8691   -1.3196 C   0  0  0  0  0  0  0  0  0  0  0  0
    6.7540  -11.7533   -0.4561 C   0  0  0  0  0  0  0  0  0  0  0  0
    5.5002  -11.4398    0.0328 C   0  0  0  0  0  0  0  0  0  0  0  0
    4.9052  -10.3134   -0.3086 N   0  0  0  0  0  0  0  0  0  0  0  0
    4.0918   -1.6896   -5.0187 C   0  0  0  0  0  0  0  0  0  0  0  0
    3.5632   -1.4387   -6.2867 C   0  0  0  0  0  0  0  0  0  0  0  0
    4.2225   -0.5858   -7.1531 C   0  0  0  0  0  0  0  0  0  0  0  0
    5.4120    0.0222   -6.7621 C   0  0  0  0  0  0  0  0  0  0  0  0
    5.9408   -0.2263   -5.4989 C   0  0  0  0  0  0  0  0  0  0  0  0
    5.2823   -1.0739   -4.6267 C   0  0  0  0  0  0  0  0  0  0  0  0
    7.1035    0.3690   -5.1200 O   0  0  0  0  0  0  0  0  0  0  0  0
    7.5888    0.0691   -3.8098 C   0  0  0  0  0  0  0  0  0  0  0  0
    6.0586    0.8601   -7.6160 O   0  0  0  0  0  0  0  0  0  0  0  0
    5.7098    2.2445   -7.5549 C   0  0  0  0  0  0  0  0  0  0  0  0
    3.7085   -0.3413   -8.3882 O   0  0  0  0  0  0  0  0  0  0  0  0
    2.4851   -0.9992   -8.7236 C   0  0  0  0  0  0  0  0  0  0  0  0
    1.5124   -1.0141   -4.0161 C   0  0  0  0  0  0  0  0  0  0  0  0
    2.1095   -0.2521   -4.7521 O   0  0  0  0  0  0  0  0  0  0  0  0
    0.2753   -0.6995   -3.5795 O   0  0  0  0  0  0  0  0  0  0  0  0
   -0.2718    0.5445   -4.0214 C   0  0  0  0  0  0  0  0  0  0  0  0
   -2.6984   -7.1016   -3.7144 H   0  0  0  0  0  0  0  0  0  0  0  0
   -3.3064   -6.3458   -2.2219 H   0  0  0  0  0  0  0  0  0  0  0  0
   -4.2551   -6.2386   -3.7242 H   0  0  0  0  0  0  0  0  0  0  0  0
   -1.3230   -4.9860   -1.8995 H   0  0  0  0  0  0  0  0  0  0  0  0
   -0.7869   -1.7443   -4.6345 H   0  0  0  0  0  0  0  0  0  0  0  0
   -2.5260   -2.7437   -6.0628 H   0  0  0  0  0  0  0  0  0  0  0  0
    0.0630   -1.6217   -2.2625 H   0  0  0  0  0  0  0  0  0  0  0  0
   -0.0051   -3.0763   -1.2388 H   0  0  0  0  0  0  0  0  0  0  0  0
    5.8357   -3.6235   -4.8128 H   0  0  0  0  0  0  0  0  0  0  0  0
    6.7579   -5.7738   -4.0297 H   0  0  0  0  0  0  0  0  0  0  0  0
    4.5532   -7.6026   -0.5916 H   0  0  0  0  0  0  0  0  0  0  0  0
    3.7990   -8.4294   -1.9757 H   0  0  0  0  0  0  0  0  0  0  0  0
    7.1840   -8.9868   -2.3302 H   0  0  0  0  0  0  0  0  0  0  0  0
    8.3629  -11.0879   -1.7176 H   0  0  0  0  0  0  0  0  0  0  0  0
    7.2378  -12.6754   -0.1697 H   0  0  0  0  0  0  0  0  0  0  0  0
    5.0035  -12.1231    0.7057 H   0  0  0  0  0  0  0  0  0  0  0  0
    2.6405   -1.9105   -6.5907 H   0  0  0  0  0  0  0  0  0  0  0  0
    5.6906   -1.2626   -3.6449 H   0  0  0  0  0  0  0  0  0  0  0  0
    6.8490    0.3739   -3.0697 H   0  0  0  0  0  0  0  0  0  0  0  0
    7.7674   -1.0028   -3.7250 H   0  0  0  0  0  0  0  0  0  0  0  0
    8.5204    0.6076   -3.6354 H   0  0  0  0  0  0  0  0  0  0  0  0
    6.2974    2.7998   -8.2859 H   0  0  0  0  0  0  0  0  0  0  0  0
    4.6491    2.3620   -7.7765 H   0  0  0  0  0  0  0  0  0  0  0  0
    5.9169    2.6276   -6.5557 H   0  0  0  0  0  0  0  0  0  0  0  0
    2.1864   -0.7181   -9.7334 H   0  0  0  0  0  0  0  0  0  0  0  0
    2.6275   -2.0787   -8.6740 H   0  0  0  0  0  0  0  0  0  0  0  0
    1.7081   -0.7025   -8.0190 H   0  0  0  0  0  0  0  0  0  0  0  0
   -1.2681    0.6739   -3.5985 H   0  0  0  0  0  0  0  0  0  0  0  0
    0.3711    1.3612   -3.6932 H   0  0  0  0  0  0  0  0  0  0  0  0
   -0.3358    0.5472   -5.1095 H   0  0  0  0  0  0  0  0  0  0  0  0
  1  2  1  0  0  0  0
  1 44  1  0  0  0  0
  1 45  1  0  0  0  0
  1 46  1  0  0  0  0
  2  7  2  0  0  0  0
  2  3  1  0  0  0  0
  3  4  2  0  0  0  0
  3 47  1  0  0  0  0
  4  5  1  0  0  0  0
  4  8  1  0  0  0  0
  5  6  2  0  0  0  0
  5 48  1  0  0  0  0
  6  7  1  0  0  0  0
  6 49  1  0  0  0  0
  8  9  1  0  0  0  0
  8 50  1  0  0  0  0
  8 51  1  0  0  0  0
  9 18  1  0  0  0  0
  9 10  1  0  0  0  0
 10 11  2  0  0  0  0
 10 40  1  0  0  0  0
 11 12  1  0  0  0  0
 11 28  1  0  0  0  0
 12 17  2  0  0  0  0
 12 13  1  0  0  0  0
 13 14  2  0  0  0  0
 13 52  1  0  0  0  0
 14 15  1  0  0  0  0
 14 53  1  0  0  0  0
 15 16  2  0  0  0  0
 15 20  1  0  0  0  0
 16 17  1  0  0  0  0
 17 18  1  0  0  0  0
 18 19  2  0  0  0  0
 20 21  1  0  0  0  0
 21 22  1  0  0  0  0
 21 54  1  0  0  0  0
 21 55  1  0  0  0  0
 22 27  2  0  0  0  0
 22 23  1  0  0  0  0
 23 24  2  0  0  0  0
 23 56  1  0  0  0  0
 24 25  1  0  0  0  0
 24 57  1  0  0  0  0
 25 26  2  0  0  0  0
 25 58  1  0  0  0  0
 26 27  1  0  0  0  0
 26 59  1  0  0  0  0
 28 33  2  0  0  0  0
 28 29  1  0  0  0  0
 29 30  2  0  0  0  0
 29 60  1  0  0  0  0
 30 31  1  0  0  0  0
 30 38  1  0  0  0  0
 31 32  2  0  0  0  0
 31 36  1  0  0  0  0
 32 33  1  0  0  0  0
 32 34  1  0  0  0  0
 33 61  1  0  0  0  0
 34 35  1  0  0  0  0
 35 62  1  0  0  0  0
 35 63  1  0  0  0  0
 35 64  1  0  0  0  0
 36 37  1  0  0  0  0
 37 65  1  0  0  0  0
 37 66  1  0  0  0  0
 37 67  1  0  0  0  0
 38 39  1  0  0  0  0
 39 68  1  0  0  0  0
 39 69  1  0  0  0  0
 39 70  1  0  0  0  0
 40 41  2  0  0  0  0
 40 42  1  0  0  0  0
 42 43  1  0  0  0  0
 43 71  1  0  0  0  0
 43 72  1  0  0  0  0
 43 73  1  0  0  0  0
M  END
$$$$
CHEMBL540031
  -OEChem-07121202283D

 74 78  0     0  0  0  0  0  0999 V2000
   -3.2484   -6.2536   -3.3065 C   0  0  0  0  0  0  0  0  0  0  0  0
   -2.5369   -4.9742   -3.6645 C   0  0  0  0  0  0  0  0  0  0  0  0
   -1.5699   -4.4697   -2.8154 C   0  0  0  0  0  0  0  0  0  0  0  0
   -0.9214   -3.2922   -3.1540 C   0  0  0  0  0  0  0  0  0  0  0  0
   -1.2713   -2.6633   -4.3394 C   0  0  0  0  0  0  0  0  0  0  0  0
   -2.2478   -3.2273   -5.1380 C   0  0  0  0  0  0  0  0  0  0  0  0
   -2.8402   -4.3520   -4.7867 N   0  3  0  0  0  0  0  0  0  0  0  0
    0.1383   -2.7091   -2.2551 C   0  0  0  0  0  0  0  0  0  0  0  0
    1.4623   -3.1102   -2.7370 N   0  0  0  0  0  0  0  0  0  0  0  0
    2.1373   -2.2752   -3.6031 C   0  0  0  0  0  0  0  0  0  0  0  0
    3.3893   -2.6006   -4.0910 C   0  0  0  0  0  0  0  0  0  0  0  0
    4.0113   -3.8645   -3.6749 C   0  0  0  0  0  0  0  0  0  0  0  0
    5.2766   -4.2499   -4.1335 C   0  0  0  0  0  0  0  0  0  0  0  0
    5.7849   -5.4438   -3.6967 C   0  0  0  0  0  0  0  0  0  0  0  0
    5.0388   -6.2330   -2.8187 C   0  0  0  0  0  0  0  0  0  0  0  0
    3.8473   -5.8548   -2.3960 N   0  0  0  0  0  0  0  0  0  0  0  0
    3.3098   -4.7068   -2.7894 C   0  0  0  0  0  0  0  0  0  0  0  0
    1.9812   -4.2782   -2.3155 C   0  0  0  0  0  0  0  0  0  0  0  0
    1.3525   -4.9819   -1.5467 O   0  0  0  0  0  0  0  0  0  0  0  0
    5.5496   -7.4140   -2.3916 O   0  0  0  0  0  0  0  0  0  0  0  0
    4.7453   -8.1822   -1.4945 C   0  0  0  0  0  0  0  0  0  0  0  0
    5.4709   -9.4521   -1.1313 C   0  0  0  0  0  0  0  0  0  0  0  0
    6.7241   -9.6980   -1.6600 C   0  0  0  0  0  0  0  0  0  0  0  0
    7.3831  -10.8691   -1.3196 C   0  0  0  0  0  0  0  0  0  0  0  0
    6.7540  -11.7533   -0.4561 C   0  0  0  0  0  0  0  0  0  0  0  0
    5.5002  -11.4398    0.0328 C   0  0  0  0  0  0  0  0  0  0  0  0
    4.9052  -10.3134   -0.3086 N   0  0  0  0  0  0  0  0  0  0  0  0
    4.0918   -1.6896   -5.0187 C   0  0  0  0  0  0  0  0  0  0  0  0
    3.5632   -1.4387   -6.2867 C   0  0  0  0  0  0  0  0  0  0  0  0
    4.2225   -0.5858   -7.1531 C   0  0  0  0  0  0  0  0  0  0  0  0
    5.4120    0.0222   -6.7621 C   0  0  0  0  0  0  0  0  0  0  0  0
    5.9408   -0.2263   -5.4989 C   0  0  0  0  0  0  0  0  0  0  0  0
    5.2823   -1.0739   -4.6267 C   0  0  0  0  0  0  0  0  0  0  0  0
    7.1035    0.3690   -5.1200 O   0  0  0  0  0  0  0  0  0  0  0  0
    7.5888    0.0691   -3.8098 C   0  0  0  0  0  0  0  0  0  0  0  0
    6.0586    0.8601   -7.6160 O   0  0  0  0  0  0  0  0  0  0  0  0
    5.7098    2.2445   -7.5549 C   0  0  0  0  0  0  0  0  0  0  0  0
    3.7085   -0.3413   -8.3882 O   0  0  0  0  0  0  0  0  0  0  0  0
    2.4851   -0.9992   -8.7236 C   0  0  0  0  0  0  0  0  0  0  0  0
    1.5124   -1.0141   -4.0161 C   0  0  0  0  0  0  0  0  0  0  0  0
    2.1095   -0.2521   -4.7521 O   0  0  0  0  0  0  0  0  0  0  0  0
    0.2753   -0.6995   -3.5795 O   0  0  0  0  0  0  0  0  0  0  0  0
   -0.2718    0.5445   -4.0214 C   0  0  0  0  0  0  0  0  0  0  0  0
   -2.6984   -7.1016   -3.7144 H   0  0  0  0  0  0  0  0  0  0  0  0
   -3.3064   -6.3458   -2.2219 H   0  0  0  0  0  0  0  0  0  0  0  0
   -4.2551   -6.2386   -3.7242 H   0  0  0  0  0  0  0  0  0  0  0  0
   -1.3230   -4.9860   -1.8995 H   0  0  0  0  0  0  0  0  0  0  0  0
   -0.7869   -1.7443   -4.6345 H   0  0  0  0  0  0  0  0  0  0  0  0
   -2.5260   -2.7437   -6.0628 H   0  0  0  0  0  0  0  0  0  0  0  0
    0.0630   -1.6217   -2.2625 H   0  0  0  0  0  0  0  0  0  0  0  0
   -0.0051   -3.0763   -1.2388 H   0  0  0  0  0  0  0  0  0  0  0  0
    5.8357   -3.6235   -4.8128 H   0  0  0  0  0  0  0  0  0  0  0  0
    6.7579   -5.7738   -4.0297 H   0  0  0  0  0  0  0  0  0  0  0  0
    4.5532   -7.6026   -0.5916 H   0  0  0  0  0  0  0  0  0  0  0  0
    3.7990   -8.4294   -1.9757 H   0  0  0  0  0  0  0  0  0  0  0  0
    7.1840   -8.9868   -2.3302 H   0  0  0  0  0  0  0  0  0  0  0  0
    8.3629  -11.0879   -1.7176 H   0  0  0  0  0  0  0  0  0  0  0  0
    7.2378  -12.6754   -0.1697 H   0  0  0  0  0  0  0  0  0  0  0  0
    5.0035  -12.1231    0.7057 H   0  0  0  0  0  0  0  0  0  0  0  0
    2.6405   -1.9105   -6.5907 H   0  0  0  0  0  0  0  0  0  0  0  0
    5.6906   -1.2626   -3.6449 H   0  0  0  0  0  0  0  0  0  0  0  0
    7.7674   -1.0028   -3.7250 H   0  0  0  0  0  0  0  0  0  0  0  0
    8.5204    0.6076   -3.6354 H   0  0  0  0  0  0  0  0  0  0  0  0
    6.8490    0.3739   -3.0697 H   0  0  0  0  0  0  0  0  0  0  0  0
    4.6491    2.3620   -7.7765 H   0  0  0  0  0  0  0  0  0  0  0  0
    5.9169    2.6276   -6.5557 H   0  0  0  0  0  0  0  0  0  0  0  0
    6.2974    2.7998   -8.2859 H   0  0  0  0  0  0  0  0  0  0  0  0
    1.7081   -0.7025   -8.0190 H   0  0  0  0  0  0  0  0  0  0  0  0
    2.1864   -0.7181   -9.7334 H   0  0  0  0  0  0  0  0  0  0  0  0
    2.6275   -2.0787   -8.6740 H   0  0  0  0  0  0  0  0  0  0  0  0
    0.3711    1.3612   -3.6932 H   0  0  0  0  0  0  0  0  0  0  0  0
   -0.3358    0.5472   -5.1095 H   0  0  0  0  0  0  0  0  0  0  0  0
   -1.2681    0.6739   -3.5985 H   0  0  0  0  0  0  0  0  0  0  0  0
   -3.5198   -4.7292   -5.3671 H   0  0  0  0  0  0  0  0  0  0  0  0
  1  2  1  0  0  0  0
  1 44  1  0  0  0  0
  1 45  1  0  0  0  0
  1 46  1  0  0  0  0
  2  7  2  0  0  0  0
  2  3  1  0  0  0  0
  3  4  2  0  0  0  0
  3 47  1  0  0  0  0
  4  5  1  0  0  0  0
  4  8  1  0  0  0  0
  5  6  2  0  0  0  0
  5 48  1  0  0  0  0
  6  7  1  0  0  0  0
  6 49  1  0  0  0  0
  7 74  1  0  0  0  0
  8  9  1  0  0  0  0
  8 50  1  0  0  0  0
  8 51  1  0  0  0  0
  9 18  1  0  0  0  0
  9 10  1  0  0  0  0
 10 11  2  0  0  0  0
 10 40  1  0  0  0  0
 11 12  1  0  0  0  0
 11 28  1  0  0  0  0
 12 17  2  0  0  0  0
 12 13  1  0  0  0  0
 13 14  2  0  0  0  0
 13 52  1  0  0  0  0
 14 15  1  0  0  0  0
 14 53  1  0  0  0  0
 15 16  2  0  0  0  0
 15 20  1  0  0  0  0
 16 17  1  0  0  0  0
 17 18  1  0  0  0  0
 18 19  2  0  0  0  0
 20 21  1  0  0  0  0
 21 22  1  0  0  0  0
 21 54  1  0  0  0  0
 21 55  1  0  0  0  0
 22 27  2  0  0  0  0
 22 23  1  0  0  0  0
 23 24  2  0  0  0  0
 23 56  1  0  0  0  0
 24 25  1  0  0  0  0
 24 57  1  0  0  0  0
 25 26  2  0  0  0  0
 25 58  1  0  0  0  0
 26 27  1  0  0  0  0
 26 59  1  0  0  0  0
 28 33  2  0  0  0  0
 28 29  1  0  0  0  0
 29 30  2  0  0  0  0
 29 60  1  0  0  0  0
 30 31  1  0  0  0  0
 30 38  1  0  0  0  0
 31 32  2  0  0  0  0
 31 36  1  0  0  0  0
 32 33  1  0  0  0  0
 32 34  1  0  0  0  0
 33 61  1  0  0  0  0
 34 35  1  0  0  0  0
 35 62  1  0  0  0  0
 35 63  1  0  0  0  0
 35 64  1  0  0  0  0
 36 37  1  0  0  0  0
 37 65  1  0  0  0  0
 37 66  1  0  0  0  0
 37 67  1  0  0  0  0
 38 39  1  0  0  0  0
 39 68  1  0  0  0  0
 39 69  1  0  0  0  0
 39 70  1  0  0  0  0
 40 41  2  0  0  0  0
 40 42  1  0  0  0  0
 42 43  1  0  0  0  0
 43 71  1  0  0  0  0
 43 72  1  0  0  0  0
 43 73  1  0  0  0  0
M  CHG  1   7   1
M  END
$$$$
CHEMBL544818
  -OEChem-07121202283D

 43 46  0     0  0  0  0  0  0999 V2000
   -0.0167    1.3781    0.0096 C   0  0  0  0  0  0  0  0  0  0  0  0
    1.1709    2.0855    0.0021 C   0  0  0  0  0  0  0  0  0  0  0  0
    2.3773    1.4107   -0.0130 C   0  0  0  0  0  0  0  0  0  0  0  0
    2.3960    0.0285   -0.0201 C   0  0  0  0  0  0  0  0  0  0  0  0
    1.2084   -0.6789   -0.0117 C   0  0  0  0  0  0  0  0  0  0  0  0
    0.0021   -0.0041    0.0020 C   0  0  0  0  0  0  0  0  0  0  0  0
    3.7112   -0.7071   -0.0376 C   0  0  0  0  0  0  0  0  0  0  0  0
    4.1714   -0.9633    1.3989 C   0  0  0  0  0  0  0  0  0  0  0  0
    5.4498   -1.6784    1.3820 N   0  0  0  0  0  0  0  0  0  0  0  0
    6.0639   -2.0209    2.5679 C   0  0  0  0  0  0  0  0  0  0  0  0
    7.3041   -2.7078    2.5724 C   0  0  0  0  0  0  0  0  0  0  0  0
    7.9574   -3.0667    1.3888 C   0  0  0  0  0  0  0  0  0  0  0  0
    9.1496   -3.7268    1.4523 C   0  0  0  0  0  0  0  0  0  0  0  0
    9.7244   -4.0484    2.6786 C   0  0  0  0  0  0  0  0  0  0  0  0
    9.1133   -3.7133    3.8502 C   0  0  0  0  0  0  0  0  0  0  0  0
    7.8873   -3.0335    3.8217 C   0  0  0  0  0  0  0  0  0  0  0  0
    7.2469   -2.6810    4.9447 N   0  0  0  0  0  0  0  0  0  0  0  0
    6.0937   -2.0420    4.8840 C   0  0  0  0  0  0  0  0  0  0  0  0
    5.5131   -1.7117    3.7318 N   0  0  0  0  0  0  0  0  0  0  0  0
    5.4191   -1.6714    6.1514 C   0  0  0  0  0  0  0  0  0  0  0  0
    5.9985   -1.9887    7.3839 C   0  0  0  0  0  0  0  0  0  0  0  0
    5.3289   -1.6210    8.5379 C   0  0  0  0  0  0  0  0  0  0  0  0
    4.1194   -0.9576    8.4362 C   0  0  0  0  0  0  0  0  0  0  0  0
    3.5972   -0.6721    7.2592 N   0  0  0  0  0  0  0  0  0  0  0  0
    4.2003   -0.9962    6.1338 C   0  0  0  0  0  0  0  0  0  0  0  0
   -0.9591    1.9053    0.0259 H   0  0  0  0  0  0  0  0  0  0  0  0
    1.1563    3.1654    0.0076 H   0  0  0  0  0  0  0  0  0  0  0  0
    3.3051    1.9634   -0.0196 H   0  0  0  0  0  0  0  0  0  0  0  0
    1.2231   -1.7588   -0.0176 H   0  0  0  0  0  0  0  0  0  0  0  0
   -0.9258   -0.5567    0.0082 H   0  0  0  0  0  0  0  0  0  0  0  0
    3.5884   -1.6586   -0.5549 H   0  0  0  0  0  0  0  0  0  0  0  0
    4.4573   -0.1052   -0.5563 H   0  0  0  0  0  0  0  0  0  0  0  0
    4.2941   -0.0118    1.9163 H   0  0  0  0  0  0  0  0  0  0  0  0
    3.4252   -1.5652    1.9176 H   0  0  0  0  0  0  0  0  0  0  0  0
    5.8643   -1.9110    0.5363 H   0  0  0  0  0  0  0  0  0  0  0  0
    7.5209   -2.8233    0.4314 H   0  0  0  0  0  0  0  0  0  0  0  0
    9.6542   -4.0040    0.5385 H   0  0  0  0  0  0  0  0  0  0  0  0
   10.6689   -4.5716    2.7022 H   0  0  0  0  0  0  0  0  0  0  0  0
    9.5707   -3.9699    4.7943 H   0  0  0  0  0  0  0  0  0  0  0  0
    6.9443   -2.5079    7.4339 H   0  0  0  0  0  0  0  0  0  0  0  0
    5.7461   -1.8498    9.5074 H   0  0  0  0  0  0  0  0  0  0  0  0
    3.5943   -0.6692    9.3348 H   0  0  0  0  0  0  0  0  0  0  0  0
    3.7436   -0.7409    5.1890 H   0  0  0  0  0  0  0  0  0  0  0  0
  1  6  2  0  0  0  0
  1  2  1  0  0  0  0
  1 26  1  0  0  0  0
  2  3  2  0  0  0  0
  2 27  1  0  0  0  0
  3  4  1  0  0  0  0
  3 28  1  0  0  0  0
  4  5  2  0  0  0  0
  4  7  1  0  0  0  0
  5  6  1  0  0  0  0
  5 29  1  0  0  0  0
  6 30  1  0  0  0  0
  7  8  1  0  0  0  0
  7 31  1  0  0  0  0
  7 32  1  0  0  0  0
  8  9  1  0  0  0  0
  8 33  1  0  0  0  0
  8 34  1  0  0  0  0
  9 10  1  0  0  0  0
  9 35  1  0  0  0  0
 10 19  2  0  0  0  0
 10 11  1  0  0  0  0
 11 16  2  0  0  0  0
 11 12  1  0  0  0  0
 12 13  2  0  0  0  0
 12 36  1  0  0  0  0
 13 14  1  0  0  0  0
 13 37  1  0  0  0  0
 14 15  2  0  0  0  0
 14 38  1  0  0  0  0
 15 16  1  0  0  0  0
 15 39  1  0  0  0  0
 16 17  1  0  0  0  0
 17 18  2  0  0  0  0
 18 19  1  0  0  0  0
 18 20  1  0  0  0  0
 20 25  2  0  0  0  0
 20 21  1  0  0  0  0
 21 22  2  0  0  0  0
 21 40  1  0  0  0  0
 22 23  1  0  0  0  0
 22 41  1  0  0  0  0
 23 24  2  0  0  0  0
 23 42  1  0  0  0  0
 24 25  1  0  0  0  0
 25 43  1  0  0  0  0
M  END
$$$$
CHEMBL555171
  -OEChem-07121202283D

 41 44  0     0  0  0  0  0  0999 V2000
   -0.0167    1.3781    0.0096 C   0  0  0  0  0  0  0  0  0  0  0  0
    1.1709    2.0855    0.0021 C   0  0  0  0  0  0  0  0  0  0  0  0
    2.3773    1.4107   -0.0130 C   0  0  0  0  0  0  0  0  0  0  0  0
    2.3960    0.0285   -0.0201 C   0  0  0  0  0  0  0  0  0  0  0  0
    1.2084   -0.6789   -0.0117 C   0  0  0  0  0  0  0  0  0  0  0  0
    0.0021   -0.0041    0.0020 C   0  0  0  0  0  0  0  0  0  0  0  0
    3.7112   -0.7071   -0.0376 C   0  0  0  0  0  0  0  0  0  0  0  0
    4.1714   -0.9633    1.3989 C   0  0  0  0  0  0  0  0  0  0  0  0
    5.4498   -1.6784    1.3820 N   0  0  0  0  0  0  0  0  0  0  0  0
    6.0638   -2.0208    2.5677 C   0  0  0  0  0  0  0  0  0  0  0  0
    7.3036   -2.7076    2.5726 C   0  0  0  0  0  0  0  0  0  0  0  0
    7.9579   -3.0670    1.3894 C   0  0  0  0  0  0  0  0  0  0  0  0
    9.1500   -3.7270    1.4544 C   0  0  0  0  0  0  0  0  0  0  0  0
    9.7236   -4.0474    2.6815 C   0  0  0  0  0  0  0  0  0  0  0  0
    9.1114   -3.7112    3.8522 C   0  0  0  0  0  0  0  0  0  0  0  0
    7.8854   -3.0324    3.8221 C   0  0  0  0  0  0  0  0  0  0  0  0
    7.2428   -2.6787    4.9449 N   0  0  0  0  0  0  0  0  0  0  0  0
    6.0919   -2.0411    4.8822 C   0  0  0  0  0  0  0  0  0  0  0  0
    5.5129   -1.7117    3.7325 N   0  0  0  0  0  0  0  0  0  0  0  0
    5.4568   -1.6921    6.0731 N   0  0  0  0  0  0  0  0  0  0  0  0
    5.9114   -1.9407    7.3441 C   0  0  0  0  0  0  0  0  0  0  0  0
    4.9948   -1.4371    8.1910 C   0  0  0  0  0  0  0  0  0  0  0  0
    4.0054   -0.8946    7.4650 N   0  0  0  0  0  0  0  0  0  0  0  0
    4.2719   -1.0356    6.1959 C   0  0  0  0  0  0  0  0  0  0  0  0
   -0.9591    1.9053    0.0259 H   0  0  0  0  0  0  0  0  0  0  0  0
    1.1563    3.1654    0.0076 H   0  0  0  0  0  0  0  0  0  0  0  0
    3.3051    1.9634   -0.0196 H   0  0  0  0  0  0  0  0  0  0  0  0
    1.2231   -1.7588   -0.0176 H   0  0  0  0  0  0  0  0  0  0  0  0
   -0.9258   -0.5567    0.0082 H   0  0  0  0  0  0  0  0  0  0  0  0
    3.5884   -1.6586   -0.5549 H   0  0  0  0  0  0  0  0  0  0  0  0
    4.4573   -0.1052   -0.5563 H   0  0  0  0  0  0  0  0  0  0  0  0
    4.2941   -0.0118    1.9163 H   0  0  0  0  0  0  0  0  0  0  0  0
    3.4252   -1.5652    1.9176 H   0  0  0  0  0  0  0  0  0  0  0  0
    5.8643   -1.9110    0.5363 H   0  0  0  0  0  0  0  0  0  0  0  0
    7.5222   -2.8240    0.4316 H   0  0  0  0  0  0  0  0  0  0  0  0
    9.6553   -4.0050    0.5413 H   0  0  0  0  0  0  0  0  0  0  0  0
   10.6680   -4.5707    2.7065 H   0  0  0  0  0  0  0  0  0  0  0  0
    9.5680   -3.9666    4.7970 H   0  0  0  0  0  0  0  0  0  0  0  0
    6.8284   -2.4441    7.6129 H   0  0  0  0  0  0  0  0  0  0  0  0
    5.0467   -1.4648    9.2694 H   0  0  0  0  0  0  0  0  0  0  0  0
    3.6543   -0.6910    5.3797 H   0  0  0  0  0  0  0  0  0  0  0  0
  1  6  2  0  0  0  0
  1  2  1  0  0  0  0
  1 25  1  0  0  0  0
  2  3  2  0  0  0  0
  2 26  1  0  0  0  0
  3  4  1  0  0  0  0
  3 27  1  0  0  0  0
  4  5  2  0  0  0  0
  4  7  1  0  0  0  0
  5  6  1  0  0  0  0
  5 28  1  0  0  0  0
  6 29  1  0  0  0  0
  7  8  1  0  0  0  0
  7 30  1  0  0  0  0
  7 31  1  0  0  0  0
  8  9  1  0  0  0  0
  8 32  1  0  0  0  0
  8 33  1  0  0  0  0
  9 10  1  0  0  0  0
  9 34  1  0  0  0  0
 10 19  2  0  0  0  0
 10 11  1  0  0  0  0
 11 16  2  0  0  0  0
 11 12  1  0  0  0  0
 12 13  2  0  0  0  0
 12 35  1  0  0  0  0
 13 14  1  0  0  0  0
 13 36  1  0  0  0  0
 14 15  2  0  0  0  0
 14 37  1  0  0  0  0
 15 16  1  0  0  0  0
 15 38  1  0  0  0  0
 16 17  1  0  0  0  0
 17 18  2  0  0  0  0
 18 19  1  0  0  0  0
 18 20  1  0  0  0  0
 20 24  1  0  0  0  0
 20 21  1  0  0  0  0
 21 22  2  0  0  0  0
 21 39  1  0  0  0  0
 22 23  1  0  0  0  0
 22 40  1  0  0  0  0
 23 24  2  0  0  0  0
 24 41  1  0  0  0  0
M  END
$$$$
CHEMBL552025
  -OEChem-07121202283D

 65 68  0     0  0  0  0  0  0999 V2000
   -0.7513    0.8308    0.4866 C   0  0  0  0  0  0  0  0  0  0  0  0
   -0.4633   -0.6691    0.3959 C   0  0  0  0  0  0  0  0  0  0  0  0
   -1.7785   -1.4467    0.4768 C   0  0  0  0  0  0  0  0  0  0  0  0
   -1.5095   -2.8476    0.3922 O   0  0  0  0  0  0  0  0  0  0  0  0
   -2.6772   -3.6687    0.4582 C   0  0  0  0  0  0  0  0  0  0  0  0
   -2.2719   -5.1407    0.3586 C   0  0  0  0  0  0  0  0  0  0  0  0
   -1.4732   -5.5077    1.5306 N   0  0  0  0  0  0  0  0  0  0  0  0
   -0.1003   -5.3649    1.5131 C   0  0  0  0  0  0  0  0  0  0  0  0
    0.6558   -5.7207    2.6460 C   0  0  0  0  0  0  0  0  0  0  0  0
    2.0529   -5.5684    2.6098 C   0  0  0  0  0  0  0  0  0  0  0  0
    2.6265   -5.0780    1.4696 C   0  0  0  0  0  0  0  0  0  0  0  0
    1.8179   -4.7437    0.3793 C   0  0  0  0  0  0  0  0  0  0  0  0
    0.5018   -4.8941    0.4306 N   0  0  0  0  0  0  0  0  0  0  0  0
    2.4424   -4.2121   -0.8544 C   0  0  0  0  0  0  0  0  0  0  0  0
    3.4222   -3.1908   -0.9221 C   0  0  0  0  0  0  0  0  0  0  0  0
    3.7211   -3.0038   -2.1741 N   0  0  0  0  0  0  0  0  0  0  0  0
    2.9466   -3.8955   -2.9541 O   0  0  0  0  0  0  0  0  0  0  0  0
    2.1826   -4.6209   -2.1259 C   0  0  0  0  0  0  0  0  0  0  0  0
    1.2074   -5.6961   -2.5309 C   0  0  0  0  0  0  0  0  0  0  0  0
    4.0139   -2.4513    0.2501 C   0  0  0  0  0  0  0  0  0  0  0  0
    0.0581   -6.2015    3.7533 N   0  0  0  0  0  0  0  0  0  0  0  0
   -1.2419   -6.3502    3.8054 C   0  0  0  0  0  0  0  0  0  0  0  0
   -2.0714   -5.9845    2.6433 C   0  0  0  0  0  0  0  0  0  0  0  0
   -3.2809   -6.1150    2.6845 O   0  0  0  0  0  0  0  0  0  0  0  0
   -1.8371   -6.8465    4.9528 N   0  0  0  0  0  0  0  0  0  0  0  0
   -1.0124   -7.2055    6.1092 C   0  0  0  0  0  0  0  0  0  0  0  0
   -1.9102   -7.7234    7.2347 C   0  0  0  0  0  0  0  0  0  0  0  0
   -1.0832   -8.0834    8.3942 N   0  0  0  0  0  0  0  0  0  0  0  0
   -0.2188   -9.2325    8.0885 C   0  0  0  0  0  0  0  0  0  0  0  0
    0.6661   -9.5354    9.3006 C   0  0  0  0  0  0  0  0  0  0  0  0
   -0.1623   -9.7698   10.4426 O   0  0  0  0  0  0  0  0  0  0  0  0
   -1.0169   -8.6706   10.7693 C   0  0  0  0  0  0  0  0  0  0  0  0
   -1.9188   -8.3590    9.5720 C   0  0  0  0  0  0  0  0  0  0  0  0
    0.1856    1.3848    0.4290 H   0  0  0  0  0  0  0  0  0  0  0  0
   -1.3997    1.1268   -0.3381 H   0  0  0  0  0  0  0  0  0  0  0  0
   -1.2451    1.0494    1.4334 H   0  0  0  0  0  0  0  0  0  0  0  0
    0.0304   -0.8877   -0.5509 H   0  0  0  0  0  0  0  0  0  0  0  0
    0.1850   -0.9651    1.2206 H   0  0  0  0  0  0  0  0  0  0  0  0
   -2.2722   -1.2281    1.4237 H   0  0  0  0  0  0  0  0  0  0  0  0
   -2.4269   -1.1508   -0.3479 H   0  0  0  0  0  0  0  0  0  0  0  0
   -3.1896   -3.4962    1.4047 H   0  0  0  0  0  0  0  0  0  0  0  0
   -3.3442   -3.4189   -0.3668 H   0  0  0  0  0  0  0  0  0  0  0  0
   -3.1666   -5.7621    0.3196 H   0  0  0  0  0  0  0  0  0  0  0  0
   -1.6827   -5.2949   -0.5454 H   0  0  0  0  0  0  0  0  0  0  0  0
    2.6594   -5.8325    3.4635 H   0  0  0  0  0  0  0  0  0  0  0  0
    3.6973   -4.9495    1.4118 H   0  0  0  0  0  0  0  0  0  0  0  0
    0.2271   -5.2515   -2.7026 H   0  0  0  0  0  0  0  0  0  0  0  0
    1.5544   -6.1752   -3.4464 H   0  0  0  0  0  0  0  0  0  0  0  0
    1.1354   -6.4392   -1.7368 H   0  0  0  0  0  0  0  0  0  0  0  0
    4.8426   -3.0271    0.6622 H   0  0  0  0  0  0  0  0  0  0  0  0
    4.3765   -1.4778   -0.0799 H   0  0  0  0  0  0  0  0  0  0  0  0
    3.2505   -2.3141    1.0160 H   0  0  0  0  0  0  0  0  0  0  0  0
   -2.8001   -6.9565    4.9909 H   0  0  0  0  0  0  0  0  0  0  0  0
   -0.3038   -7.9826    5.8229 H   0  0  0  0  0  0  0  0  0  0  0  0
   -0.4680   -6.3265    6.4541 H   0  0  0  0  0  0  0  0  0  0  0  0
   -2.6188   -6.9463    7.5210 H   0  0  0  0  0  0  0  0  0  0  0  0
   -2.4546   -8.6025    6.8898 H   0  0  0  0  0  0  0  0  0  0  0  0
   -0.8357  -10.1020    7.8619 H   0  0  0  0  0  0  0  0  0  0  0  0
    0.4092   -8.9971    7.2292 H   0  0  0  0  0  0  0  0  0  0  0  0
    1.2680  -10.4216    9.0995 H   0  0  0  0  0  0  0  0  0  0  0  0
    1.3212   -8.6860    9.4943 H   0  0  0  0  0  0  0  0  0  0  0  0
   -1.6323   -8.9314   11.6303 H   0  0  0  0  0  0  0  0  0  0  0  0
   -0.4108   -7.7961   11.0057 H   0  0  0  0  0  0  0  0  0  0  0  0
   -2.5319   -7.4859    9.7957 H   0  0  0  0  0  0  0  0  0  0  0  0
   -2.5630   -9.2145    9.3692 H   0  0  0  0  0  0  0  0  0  0  0  0
  1  2  1  0  0  0  0
  1 34  1  0  0  0  0
  1 35  1  0  0  0  0
  1 36  1  0  0  0  0
  2  3  1  0  0  0  0
  2 37  1  0  0  0  0
  2 38  1  0  0  0  0
  3  4  1  0  0  0  0
  3 39  1  0  0  0  0
  3 40  1  0  0  0  0
  4  5  1  0  0  0  0
  5  6  1  0  0  0  0
  5 41  1  0  0  0  0
  5 42  1  0  0  0  0
  6  7  1  0  0  0  0
  6 43  1  0  0  0  0
  6 44  1  0  0  0  0
  7 23  1  0  0  0  0
  7  8  1  0  0  0  0
  8 13  2  0  0  0  0
  8  9  1  0  0  0  0
  9 10  2  0  0  0  0
  9 21  1  0  0  0  0
 10 11  1  0  0  0  0
 10 45  1  0  0  0  0
 11 12  2  0  0  0  0
 11 46  1  0  0  0  0
 12 13  1  0  0  0  0
 12 14  1  0  0  0  0
 14 18  2  0  0  0  0
 14 15  1  0  0  0  0
 15 16  2  0  0  0  0
 15 20  1  0  0  0  0
 16 17  1  0  0  0  0
 17 18  1  0  0  0  0
 18 19  1  0  0  0  0
 19 47  1  0  0  0  0
 19 48  1  0  0  0  0
 19 49  1  0  0  0  0
 20 50  1  0  0  0  0
 20 51  1  0  0  0  0
 20 52  1  0  0  0  0
 21 22  2  0  0  0  0
 22 23  1  0  0  0  0
 22 25  1  0  0  0  0
 23 24  2  0  0  0  0
 25 26  1  0  0  0  0
 25 53  1  0  0  0  0
 26 27  1  0  0  0  0
 26 54  1  0  0  0  0
 26 55  1  0  0  0  0
 27 28  1  0  0  0  0
 27 56  1  0  0  0  0
 27 57  1  0  0  0  0
 28 33  1  0  0  0  0
 28 29  1  0  0  0  0
 29 30  1  0  0  0  0
 29 58  1  0  0  0  0
 29 59  1  0  0  0  0
 30 31  1  0  0  0  0
 30 60  1  0  0  0  0
 30 61  1  0  0  0  0
 31 32  1  0  0  0  0
 32 33  1  0  0  0  0
 32 62  1  0  0  0  0
 32 63  1  0  0  0  0
 33 64  1  0  0  0  0
 33 65  1  0  0  0  0
M  END
$$$$
CHEMBL552025
  -OEChem-07121202283D

 66 69  0     0  0  0  0  0  0999 V2000
   -0.7513    0.8308    0.4866 C   0  0  0  0  0  0  0  0  0  0  0  0
   -0.4633   -0.6691    0.3959 C   0  0  0  0  0  0  0  0  0  0  0  0
   -1.7785   -1.4467    0.4768 C   0  0  0  0  0  0  0  0  0  0  0  0
   -1.5095   -2.8476    0.3922 O   0  0  0  0  0  0  0  0  0  0  0  0
   -2.6772   -3.6687    0.4582 C   0  0  0  0  0  0  0  0  0  0  0  0
   -2.2719   -5.1407    0.3586 C   0  0  0  0  0  0  0  0  0  0  0  0
   -1.4732   -5.5077    1.5306 N   0  0  0  0  0  0  0  0  0  0  0  0
   -0.1003   -5.3649    1.5131 C   0  0  0  0  0  0  0  0  0  0  0  0
    0.6558   -5.7207    2.6460 C   0  0  0  0  0  0  0  0  0  0  0  0
    2.0529   -5.5684    2.6098 C   0  0  0  0  0  0  0  0  0  0  0  0
    2.6265   -5.0780    1.4696 C   0  0  0  0  0  0  0  0  0  0  0  0
    1.8179   -4.7437    0.3793 C   0  0  0  0  0  0  0  0  0  0  0  0
    0.5018   -4.8941    0.4306 N   0  0  0  0  0  0  0  0  0  0  0  0
    2.4424   -4.2121   -0.8544 C   0  0  0  0  0  0  0  0  0  0  0  0
    3.4222   -3.1908   -0.9221 C   0  0  0  0  0  0  0  0  0  0  0  0
    3.7211   -3.0038   -2.1741 N   0  0  0  0  0  0  0  0  0  0  0  0
    2.9466   -3.8955   -2.9541 O   0  0  0  0  0  0  0  0  0  0  0  0
    2.1826   -4.6209   -2.1259 C   0  0  0  0  0  0  0  0  0  0  0  0
    1.2074   -5.6961   -2.5309 C   0  0  0  0  0  0  0  0  0  0  0  0
    4.0139   -2.4513    0.2501 C   0  0  0  0  0  0  0  0  0  0  0  0
    0.0581   -6.2015    3.7533 N   0  0  0  0  0  0  0  0  0  0  0  0
   -1.2419   -6.3502    3.8054 C   0  0  0  0  0  0  0  0  0  0  0  0
   -2.0714   -5.9845    2.6433 C   0  0  0  0  0  0  0  0  0  0  0  0
   -3.2809   -6.1150    2.6845 O   0  0  0  0  0  0  0  0  0  0  0  0
   -1.8371   -6.8465    4.9528 N   0  0  0  0  0  0  0  0  0  0  0  0
   -1.0124   -7.2055    6.1092 C   0  0  0  0  0  0  0  0  0  0  0  0
   -1.9102   -7.7234    7.2347 C   0  0  0  0  0  0  0  0  0  0  0  0
   -1.0832   -8.0834    8.3942 N   0  3  0  0  0  0  0  0  0  0  0  0
   -0.2115   -9.2128    8.0427 C   0  0  0  0  0  0  0  0  0  0  0  0
    0.6491   -9.5858    9.2524 C   0  0  0  0  0  0  0  0  0  0  0  0
   -0.2023   -9.9033   10.3570 O   0  0  0  0  0  0  0  0  0  0  0  0
   -1.0882   -8.8414   10.7224 C   0  0  0  0  0  0  0  0  0  0  0  0
   -1.9521   -8.4671    9.5154 C   0  0  0  0  0  0  0  0  0  0  0  0
    0.1856    1.3848    0.4290 H   0  0  0  0  0  0  0  0  0  0  0  0
   -1.3997    1.1268   -0.3381 H   0  0  0  0  0  0  0  0  0  0  0  0
   -1.2451    1.0494    1.4334 H   0  0  0  0  0  0  0  0  0  0  0  0
    0.0304   -0.8877   -0.5509 H   0  0  0  0  0  0  0  0  0  0  0  0
    0.1850   -0.9651    1.2206 H   0  0  0  0  0  0  0  0  0  0  0  0
   -2.2722   -1.2281    1.4237 H   0  0  0  0  0  0  0  0  0  0  0  0
   -2.4269   -1.1508   -0.3479 H   0  0  0  0  0  0  0  0  0  0  0  0
   -3.1896   -3.4962    1.4047 H   0  0  0  0  0  0  0  0  0  0  0  0
   -3.3442   -3.4189   -0.3668 H   0  0  0  0  0  0  0  0  0  0  0  0
   -3.1666   -5.7621    0.3196 H   0  0  0  0  0  0  0  0  0  0  0  0
   -1.6827   -5.2949   -0.5454 H   0  0  0  0  0  0  0  0  0  0  0  0
    2.6594   -5.8325    3.4635 H   0  0  0  0  0  0  0  0  0  0  0  0
    3.6973   -4.9495    1.4118 H   0  0  0  0  0  0  0  0  0  0  0  0
    0.2271   -5.2515   -2.7026 H   0  0  0  0  0  0  0  0  0  0  0  0
    1.5544   -6.1752   -3.4464 H   0  0  0  0  0  0  0  0  0  0  0  0
    1.1354   -6.4392   -1.7368 H   0  0  0  0  0  0  0  0  0  0  0  0
    4.8426   -3.0271    0.6622 H   0  0  0  0  0  0  0  0  0  0  0  0
    4.3765   -1.4778   -0.0799 H   0  0  0  0  0  0  0  0  0  0  0  0
    3.2505   -2.3141    1.0160 H   0  0  0  0  0  0  0  0  0  0  0  0
   -2.8001   -6.9565    4.9909 H   0  0  0  0  0  0  0  0  0  0  0  0
   -0.3038   -7.9826    5.8229 H   0  0  0  0  0  0  0  0  0  0  0  0
   -0.4680   -6.3265    6.4541 H   0  0  0  0  0  0  0  0  0  0  0  0
   -2.6188   -6.9463    7.5210 H   0  0  0  0  0  0  0  0  0  0  0  0
   -2.4546   -8.6025    6.8898 H   0  0  0  0  0  0  0  0  0  0  0  0
   -0.8228  -10.0678    7.7539 H   0  0  0  0  0  0  0  0  0  0  0  0
    0.4335   -8.9292    7.2111 H   0  0  0  0  0  0  0  0  0  0  0  0
    1.2656  -10.4508    9.0077 H   0  0  0  0  0  0  0  0  0  0  0  0
    1.2897   -8.7444    9.5166 H   0  0  0  0  0  0  0  0  0  0  0  0
   -1.7290   -9.1676   11.5415 H   0  0  0  0  0  0  0  0  0  0  0  0
   -0.5070   -7.9746   11.0369 H   0  0  0  0  0  0  0  0  0  0  0  0
   -2.5991   -7.6298    9.7771 H   0  0  0  0  0  0  0  0  0  0  0  0
   -2.5627   -9.3223    9.2261 H   0  0  0  0  0  0  0  0  0  0  0  0
   -0.5174   -7.2923    8.6625 H   0  0  0  0  0  0  0  0  0  0  0  0
  1  2  1  0  0  0  0
  1 34  1  0  0  0  0
  1 35  1  0  0  0  0
  1 36  1  0  0  0  0
  2  3  1  0  0  0  0
  2 37  1  0  0  0  0
  2 38  1  0  0  0  0
  3  4  1  0  0  0  0
  3 39  1  0  0  0  0
  3 40  1  0  0  0  0
  4  5  1  0  0  0  0
  5  6  1  0  0  0  0
  5 41  1  0  0  0  0
  5 42  1  0  0  0  0
  6  7  1  0  0  0  0
  6 43  1  0  0  0  0
  6 44  1  0  0  0  0
  7 23  1  0  0  0  0
  7  8  1  0  0  0  0
  8 13  2  0  0  0  0
  8  9  1  0  0  0  0
  9 10  2  0  0  0  0
  9 21  1  0  0  0  0
 10 11  1  0  0  0  0
 10 45  1  0  0  0  0
 11 12  2  0  0  0  0
 11 46  1  0  0  0  0
 12 13  1  0  0  0  0
 12 14  1  0  0  0  0
 14 18  2  0  0  0  0
 14 15  1  0  0  0  0
 15 16  2  0  0  0  0
 15 20  1  0  0  0  0
 16 17  1  0  0  0  0
 17 18  1  0  0  0  0
 18 19  1  0  0  0  0
 19 47  1  0  0  0  0
 19 48  1  0  0  0  0
 19 49  1  0  0  0  0
 20 50  1  0  0  0  0
 20 51  1  0  0  0  0
 20 52  1  0  0  0  0
 21 22  2  0  0  0  0
 22 23  1  0  0  0  0
 22 25  1  0  0  0  0
 23 24  2  0  0  0  0
 25 26  1  0  0  0  0
 25 53  1  0  0  0  0
 26 27  1  0  0  0  0
 26 54  1  0  0  0  0
 26 55  1  0  0  0  0
 27 28  1  0  0  0  0
 27 56  1  0  0  0  0
 27 57  1  0  0  0  0
 28 33  1  0  0  0  0
 28 29  1  0  0  0  0
 28 66  1  0  0  0  0
 29 30  1  0  0  0  0
 29 58  1  0  0  0  0
 29 59  1  0  0  0  0
 30 31  1  0  0  0  0
 30 60  1  0  0  0  0
 30 61  1  0  0  0  0
 31 32  1  0  0  0  0
 32 33  1  0  0  0  0
 32 62  1  0  0  0  0
 32 63  1  0  0  0  0
 33 64  1  0  0  0  0
 33 65  1  0  0  0  0
M  CHG  1  28   1
M  END
$$$$
CHEMBL514402
  -OEChem-07121202283D

 58 63  0     1  0  0  0  0  0999 V2000
   -0.2778    1.5280    0.2240 C   0  0  0  0  0  0  0  0  0  0  0  0
   -0.3055   -0.0014    0.2555 C   0  0  0  0  0  0  0  0  0  0  0  0
    0.6933   -0.4774    1.1598 O   0  0  0  0  0  0  0  0  0  0  0  0
    0.8021   -1.8242    1.3058 C   0  0  0  0  0  0  0  0  0  0  0  0
   -0.0315   -2.6703    0.5889 C   0  0  0  0  0  0  0  0  0  0  0  0
    0.0814   -4.0390    0.7387 C   0  0  0  0  0  0  0  0  0  0  0  0
    1.0238   -4.5657    1.6025 C   0  0  0  0  0  0  0  0  0  0  0  0
    1.8554   -3.7245    2.3184 C   0  0  0  0  0  0  0  0  0  0  0  0
    1.7507   -2.3553    2.1676 C   0  0  0  0  0  0  0  0  0  0  0  0
    1.1444   -6.0591    1.7643 C   0  0  1  0  0  0  0  0  0  0  0  0
    0.3387   -6.5597    1.2273 H   0  0  0  0  0  0  0  0  0  0  0  0
    2.4881   -6.5321    1.2457 C   0  0  0  0  0  0  0  0  0  0  0  0
    3.4683   -7.0140    2.0388 C   0  0  0  0  0  0  0  0  0  0  0  0
    4.5829   -7.3461    1.1704 C   0  0  0  0  0  0  0  0  0  0  0  0
    5.8533   -7.8723    1.4231 C   0  0  0  0  0  0  0  0  0  0  0  0
    6.6717   -8.0645    0.3374 C   0  0  0  0  0  0  0  0  0  0  0  0
    6.2689   -7.7560   -0.9517 C   0  0  0  0  0  0  0  0  0  0  0  0
    5.0178   -7.2333   -1.2297 C   0  0  0  0  0  0  0  0  0  0  0  0
    4.1655   -7.0274   -0.1467 C   0  0  0  0  0  0  0  0  0  0  0  0
    2.8937   -6.5391   -0.0621 N   0  0  0  0  0  0  0  0  0  0  0  0
    2.3583   -6.2423   -0.8145 H   0  0  0  0  0  0  0  0  0  0  0  0
    3.3923   -7.1779    3.5360 C   0  0  0  0  0  0  0  0  0  0  0  0
    2.2697   -6.2917    4.0886 C   0  0  1  0  0  0  0  0  0  0  0  0
    2.5908   -5.2551    4.1914 H   0  0  0  0  0  0  0  0  0  0  0  0
    1.1005   -6.4172    3.1874 N   0  0  0  0  0  0  0  0  0  0  0  0
    0.0895   -6.9039    3.9094 C   0  0  0  0  0  0  0  0  0  0  0  0
   -1.0337   -7.0722    3.4767 O   0  0  0  0  0  0  0  0  0  0  0  0
    0.4568   -7.1861    5.1676 N   0  0  0  0  0  0  0  0  0  0  0  0
    1.7747   -6.8581    5.4040 C   0  0  0  0  0  0  0  0  0  0  0  0
    2.4103   -6.9916    6.4277 O   0  0  0  0  0  0  0  0  0  0  0  0
   -0.4362   -7.7633    6.1754 C   0  0  0  0  0  0  0  0  0  0  0  0
   -0.3557   -9.2670    6.1157 C   0  0  0  0  0  0  0  0  0  0  0  0
   -1.2047   -9.9831    5.2856 C   0  0  0  0  0  0  0  0  0  0  0  0
   -1.0949  -11.3649    5.2632 C   0  0  0  0  0  0  0  0  0  0  0  0
   -0.1495  -11.9785    6.0634 C   0  0  0  0  0  0  0  0  0  0  0  0
    0.6411  -11.2653    6.8411 N   0  0  0  0  0  0  0  0  0  0  0  0
    0.5690   -9.9491    6.8833 C   0  0  0  0  0  0  0  0  0  0  0  0
    0.7037    1.8669   -0.1075 H   0  0  0  0  0  0  0  0  0  0  0  0
   -1.0397    1.8910   -0.4658 H   0  0  0  0  0  0  0  0  0  0  0  0
   -0.4777    1.9156    1.2229 H   0  0  0  0  0  0  0  0  0  0  0  0
   -1.2870   -0.3403    0.5870 H   0  0  0  0  0  0  0  0  0  0  0  0
   -0.1056   -0.3891   -0.7435 H   0  0  0  0  0  0  0  0  0  0  0  0
   -0.7682   -2.2594   -0.0855 H   0  0  0  0  0  0  0  0  0  0  0  0
   -0.5672   -4.6981    0.1808 H   0  0  0  0  0  0  0  0  0  0  0  0
    2.5905   -4.1384    2.9928 H   0  0  0  0  0  0  0  0  0  0  0  0
    2.4034   -1.6988    2.7237 H   0  0  0  0  0  0  0  0  0  0  0  0
    6.1756   -8.1162    2.4246 H   0  0  0  0  0  0  0  0  0  0  0  0
    7.6607   -8.4695    0.4933 H   0  0  0  0  0  0  0  0  0  0  0  0
    6.9549   -7.9290   -1.7678 H   0  0  0  0  0  0  0  0  0  0  0  0
    4.7161   -6.9961   -2.2393 H   0  0  0  0  0  0  0  0  0  0  0  0
    3.1849   -8.2203    3.7776 H   0  0  0  0  0  0  0  0  0  0  0  0
    4.3418   -6.8828    3.9827 H   0  0  0  0  0  0  0  0  0  0  0  0
   -0.1348   -7.4223    7.1659 H   0  0  0  0  0  0  0  0  0  0  0  0
   -1.4601   -7.4461    5.9779 H   0  0  0  0  0  0  0  0  0  0  0  0
   -1.9344   -9.4765    4.6713 H   0  0  0  0  0  0  0  0  0  0  0  0
   -1.7402  -11.9545    4.6288 H   0  0  0  0  0  0  0  0  0  0  0  0
   -0.0576  -13.0545    6.0517 H   0  0  0  0  0  0  0  0  0  0  0  0
    1.2371   -9.3983    7.5288 H   0  0  0  0  0  0  0  0  0  0  0  0
  1  2  1  0  0  0  0
  1 38  1  0  0  0  0
  1 39  1  0  0  0  0
  1 40  1  0  0  0  0
  2  3  1  0  0  0  0
  2 41  1  0  0  0  0
  2 42  1  0  0  0  0
  3  4  1  0  0  0  0
  4  9  2  0  0  0  0
  4  5  1  0  0  0  0
  5  6  2  0  0  0  0
  5 43  1  0  0  0  0
  6  7  1  0  0  0  0
  6 44  1  0  0  0  0
  7  8  2  0  0  0  0
  7 10  1  0  0  0  0
  8  9  1  0  0  0  0
  8 45  1  0  0  0  0
  9 46  1  0  0  0  0
 10 11  1  0  0  0  0
 10 25  1  0  0  0  0
 10 12  1  0  0  0  0
 12 20  1  0  0  0  0
 12 13  2  0  0  0  0
 13 14  1  0  0  0  0
 13 22  1  0  0  0  0
 14 19  2  0  0  0  0
 14 15  1  0  0  0  0
 15 16  2  0  0  0  0
 15 47  1  0  0  0  0
 16 17  1  0  0  0  0
 16 48  1  0  0  0  0
 17 18  2  0  0  0  0
 17 49  1  0  0  0  0
 18 19  1  0  0  0  0
 18 50  1  0  0  0  0
 19 20  1  0  0  0  0
 20 21  1  0  0  0  0
 22 23  1  0  0  0  0
 22 51  1  0  0  0  0
 22 52  1  0  0  0  0
 23 24  1  0  0  0  0
 23 29  1  0  0  0  0
 23 25  1  0  0  0  0
 25 26  1  0  0  0  0
 26 27  2  0  0  0  0
 26 28  1  0  0  0  0
 28 29  1  0  0  0  0
 28 31  1  0  0  0  0
 29 30  2  0  0  0  0
 31 32  1  0  0  0  0
 31 53  1  0  0  0  0
 31 54  1  0  0  0  0
 32 37  2  0  0  0  0
 32 33  1  0  0  0  0
 33 34  2  0  0  0  0
 33 55  1  0  0  0  0
 34 35  1  0  0  0  0
 34 56  1  0  0  0  0
 35 36  2  0  0  0  0
 35 57  1  0  0  0  0
 36 37  1  0  0  0  0
 37 58  1  0  0  0  0
M  END
$$$$
CHEMBL46693
  -OEChem-07121202283D

 34 36  0     0  0  0  0  0  0999 V2000
   -0.0187    1.5258    0.0104 C   0  0  0  0  0  0  0  0  0  0  0  0
    0.0021   -0.0041    0.0020 C   0  0  0  0  0  0  0  0  0  0  0  0
   -1.4333   -0.5336    0.0129 C   0  0  0  0  0  0  0  0  0  0  0  0
   -1.4139   -1.9625    0.0050 O   0  0  0  0  0  0  0  0  0  0  0  0
   -2.6148   -2.5951    0.0131 C   0  0  0  0  0  0  0  0  0  0  0  0
   -3.7894   -1.8589    0.0225 C   0  0  0  0  0  0  0  0  0  0  0  0
   -5.0108   -2.5038    0.0306 C   0  0  0  0  0  0  0  0  0  0  0  0
   -5.0721   -3.8874    0.0291 C   0  0  0  0  0  0  0  0  0  0  0  0
   -3.9137   -4.6346    0.0194 C   0  0  0  0  0  0  0  0  0  0  0  0
   -2.6726   -3.9948    0.0061 C   0  0  0  0  0  0  0  0  0  0  0  0
   -1.4282   -4.7890   -0.0100 C   0  0  0  0  0  0  0  0  0  0  0  0
   -0.2857   -4.1582   -0.0121 N   0  0  0  0  0  0  0  0  0  0  0  0
    0.9070   -4.8218   -0.0262 C   0  0  0  0  0  0  0  0  0  0  0  0
    2.2029   -4.2850   -0.0298 C   0  0  0  0  0  0  0  0  0  0  0  0
    3.2769   -5.1027   -0.0440 C   0  0  0  0  0  0  0  0  0  0  0  0
    2.5361   -6.7268   -0.0538 S   0  0  0  0  0  0  0  0  0  0  0  0
    0.8345   -6.2269   -0.0383 C   0  0  0  0  0  0  0  0  0  0  0  0
   -0.3897   -6.8953   -0.0364 C   0  0  0  0  0  0  0  0  0  0  0  0
   -1.5237   -6.1543   -0.0164 N   0  0  0  0  0  0  0  0  0  0  0  0
   -0.4379   -8.1139   -0.0474 O   0  0  0  0  0  0  0  0  0  0  0  0
    1.0039    1.9031    0.0027 H   0  0  0  0  0  0  0  0  0  0  0  0
   -0.5459    1.8868   -0.8726 H   0  0  0  0  0  0  0  0  0  0  0  0
   -0.5289    1.8773    0.9072 H   0  0  0  0  0  0  0  0  0  0  0  0
    0.5123   -0.3556   -0.8948 H   0  0  0  0  0  0  0  0  0  0  0  0
    0.5293   -0.3651    0.8851 H   0  0  0  0  0  0  0  0  0  0  0  0
   -1.9435   -0.1821    0.9097 H   0  0  0  0  0  0  0  0  0  0  0  0
   -1.9605   -0.1726   -0.8702 H   0  0  0  0  0  0  0  0  0  0  0  0
   -3.7494   -0.7796    0.0237 H   0  0  0  0  0  0  0  0  0  0  0  0
   -5.9231   -1.9259    0.0386 H   0  0  0  0  0  0  0  0  0  0  0  0
   -6.0316   -4.3831    0.0359 H   0  0  0  0  0  0  0  0  0  0  0  0
   -3.9660   -5.7133    0.0185 H   0  0  0  0  0  0  0  0  0  0  0  0
    2.3420   -3.2140   -0.0214 H   0  0  0  0  0  0  0  0  0  0  0  0
    4.3244   -4.8396   -0.0485 H   0  0  0  0  0  0  0  0  0  0  0  0
   -2.3924   -6.5859   -0.0104 H   0  0  0  0  0  0  0  0  0  0  0  0
  1  2  1  0  0  0  0
  1 21  1  0  0  0  0
  1 22  1  0  0  0  0
  1 23  1  0  0  0  0
  2  3  1  0  0  0  0
  2 24  1  0  0  0  0
  2 25  1  0  0  0  0
  3  4  1  0  0  0  0
  3 26  1  0  0  0  0
  3 27  1  0  0  0  0
  4  5  1  0  0  0  0
  5 10  2  0  0  0  0
  5  6  1  0  0  0  0
  6  7  2  0  0  0  0
  6 28  1  0  0  0  0
  7  8  1  0  0  0  0
  7 29  1  0  0  0  0
  8  9  2  0  0  0  0
  8 30  1  0  0  0  0
  9 10  1  0  0  0  0
  9 31  1  0  0  0  0
 10 11  1  0  0  0  0
 11 19  1  0  0  0  0
 11 12  2  0  0  0  0
 12 13  1  0  0  0  0
 13 17  2  0  0  0  0
 13 14  1  0  0  0  0
 14 15  2  0  0  0  0
 14 32  1  0  0  0  0
 15 16  1  0  0  0  0
 15 33  1  0  0  0  0
 16 17  1  0  0  0  0
 17 18  1  0  0  0  0
 18 19  1  0  0  0  0
 18 20  2  0  0  0  0
 19 34  1  0  0  0  0
M  END
$$$$
CHEMBL46693
  -OEChem-07121202283D

 34 36  0     0  0  0  0  0  0999 V2000
   -0.0187    1.5258    0.0104 C   0  0  0  0  0  0  0  0  0  0  0  0
    0.0021   -0.0041    0.0020 C   0  0  0  0  0  0  0  0  0  0  0  0
   -1.4333   -0.5336    0.0129 C   0  0  0  0  0  0  0  0  0  0  0  0
   -1.4139   -1.9625    0.0050 O   0  0  0  0  0  0  0  0  0  0  0  0
   -2.6144   -2.5949    0.0131 C   0  0  0  0  0  0  0  0  0  0  0  0
   -3.7894   -1.8586    0.0225 C   0  0  0  0  0  0  0  0  0  0  0  0
   -5.0104   -2.5035    0.0312 C   0  0  0  0  0  0  0  0  0  0  0  0
   -5.0720   -3.8874    0.0306 C   0  0  0  0  0  0  0  0  0  0  0  0
   -3.9142   -4.6348    0.0213 C   0  0  0  0  0  0  0  0  0  0  0  0
   -2.6724   -3.9951    0.0061 C   0  0  0  0  0  0  0  0  0  0  0  0
   -1.4290   -4.7891   -0.0101 C   0  0  0  0  0  0  0  0  0  0  0  0
   -1.5241   -6.1416   -0.0220 N   0  0  0  0  0  0  0  0  0  0  0  0
   -0.3738   -6.9382   -0.0380 C   0  0  0  0  0  0  0  0  0  0  0  0
   -0.2769   -8.3296   -0.0522 C   0  0  0  0  0  0  0  0  0  0  0  0
    0.9372   -8.9270   -0.0668 C   0  0  0  0  0  0  0  0  0  0  0  0
    2.0544   -7.5342   -0.0620 S   0  0  0  0  0  0  0  0  0  0  0  0
    0.8395   -6.2422   -0.0405 C   0  0  0  0  0  0  0  0  0  0  0  0
    0.8797   -4.8411   -0.0284 C   0  0  0  0  0  0  0  0  0  0  0  0
   -0.2767   -4.1530   -0.0177 N   0  0  0  0  0  0  0  0  0  0  0  0
    1.9502   -4.2526   -0.0306 O   0  0  0  0  0  0  0  0  0  0  0  0
    1.0039    1.9031    0.0027 H   0  0  0  0  0  0  0  0  0  0  0  0
   -0.5459    1.8868   -0.8726 H   0  0  0  0  0  0  0  0  0  0  0  0
   -0.5289    1.8773    0.9072 H   0  0  0  0  0  0  0  0  0  0  0  0
    0.5123   -0.3556   -0.8948 H   0  0  0  0  0  0  0  0  0  0  0  0
    0.5293   -0.3651    0.8851 H   0  0  0  0  0  0  0  0  0  0  0  0
   -1.9435   -0.1821    0.9097 H   0  0  0  0  0  0  0  0  0  0  0  0
   -1.9605   -0.1726   -0.8702 H   0  0  0  0  0  0  0  0  0  0  0  0
   -3.7495   -0.7793    0.0234 H   0  0  0  0  0  0  0  0  0  0  0  0
   -5.9228   -1.9255    0.0389 H   0  0  0  0  0  0  0  0  0  0  0  0
   -6.0317   -4.3828    0.0378 H   0  0  0  0  0  0  0  0  0  0  0  0
   -3.9669   -5.7135    0.0216 H   0  0  0  0  0  0  0  0  0  0  0  0
   -1.1734   -8.9318   -0.0512 H   0  0  0  0  0  0  0  0  0  0  0  0
    1.1715   -9.9812   -0.0783 H   0  0  0  0  0  0  0  0  0  0  0  0
   -2.3985   -6.5614   -0.0191 H   0  0  0  0  0  0  0  0  0  0  0  0
  1  2  1  0  0  0  0
  1 21  1  0  0  0  0
  1 22  1  0  0  0  0
  1 23  1  0  0  0  0
  2  3  1  0  0  0  0
  2 24  1  0  0  0  0
  2 25  1  0  0  0  0
  3  4  1  0  0  0  0
  3 26  1  0  0  0  0
  3 27  1  0  0  0  0
  4  5  1  0  0  0  0
  5 10  2  0  0  0  0
  5  6  1  0  0  0  0
  6  7  2  0  0  0  0
  6 28  1  0  0  0  0
  7  8  1  0  0  0  0
  7 29  1  0  0  0  0
  8  9  2  0  0  0  0
  8 30  1  0  0  0  0
  9 10  1  0  0  0  0
  9 31  1  0  0  0  0
 10 11  1  0  0  0  0
 11 19  2  0  0  0  0
 11 12  1  0  0  0  0
 12 13  1  0  0  0  0
 12 34  1  0  0  0  0
 13 17  2  0  0  0  0
 13 14  1  0  0  0  0
 14 15  2  0  0  0  0
 14 32  1  0  0  0  0
 15 16  1  0  0  0  0
 15 33  1  0  0  0  0
 16 17  1  0  0  0  0
 17 18  1  0  0  0  0
 18 19  1  0  0  0  0
 18 20  2  0  0  0  0
M  END
$$$$
CHEMBL42435
  -OEChem-07121202283D

 37 39  0     0  0  0  0  0  0999 V2000
   -0.0187    1.5258    0.0104 C   0  0  0  0  0  0  0  0  0  0  0  0
    0.0021   -0.0041    0.0020 C   0  0  0  0  0  0  0  0  0  0  0  0
    0.7182   -0.4975   -1.2568 C   0  0  0  0  0  0  0  0  0  0  0  0
    0.7376   -1.9263   -1.2646 O   0  0  0  0  0  0  0  0  0  0  0  0
    1.3405   -2.5286   -2.3210 C   0  0  0  0  0  0  0  0  0  0  0  0
    1.9079   -1.7632   -3.3280 C   0  0  0  0  0  0  0  0  0  0  0  0
    2.5213   -2.3773   -4.4025 C   0  0  0  0  0  0  0  0  0  0  0  0
    2.5749   -3.7590   -4.4827 C   0  0  0  0  0  0  0  0  0  0  0  0
    2.0163   -4.5353   -3.4901 C   0  0  0  0  0  0  0  0  0  0  0  0
    1.3973   -3.9268   -2.3956 C   0  0  0  0  0  0  0  0  0  0  0  0
    0.8022   -4.7516   -1.3268 C   0  0  0  0  0  0  0  0  0  0  0  0
    0.8699   -6.1152   -1.4099 N   0  0  0  0  0  0  0  0  0  0  0  0
    0.3379   -6.8991   -0.4541 C   0  0  0  0  0  0  0  0  0  0  0  0
   -0.3092   -6.2875    0.6684 C   0  0  0  0  0  0  0  0  0  0  0  0
   -0.9493   -6.9118    1.8111 C   0  0  0  0  0  0  0  0  0  0  0  0
   -1.4993   -6.1365    2.7595 C   0  0  0  0  0  0  0  0  0  0  0  0
   -1.1897   -4.4820    2.1720 S   0  0  0  0  0  0  0  0  0  0  0  0
   -0.3310   -4.8794    0.6706 C   0  0  0  0  0  0  0  0  0  0  0  0
    0.2176   -4.1649   -0.3028 N   0  0  0  0  0  0  0  0  0  0  0  0
   -0.9966   -8.4132    1.9320 C   0  0  0  0  0  0  0  0  0  0  0  0
    0.4052   -8.1129   -0.5423 O   0  0  0  0  0  0  0  0  0  0  0  0
    1.0039    1.9031    0.0027 H   0  0  0  0  0  0  0  0  0  0  0  0
   -0.5459    1.8868   -0.8726 H   0  0  0  0  0  0  0  0  0  0  0  0
   -0.5289    1.8773    0.9072 H   0  0  0  0  0  0  0  0  0  0  0  0
    0.5293   -0.3651    0.8851 H   0  0  0  0  0  0  0  0  0  0  0  0
   -1.0205   -0.3814    0.0098 H   0  0  0  0  0  0  0  0  0  0  0  0
    0.1910   -0.1364   -2.1398 H   0  0  0  0  0  0  0  0  0  0  0  0
    1.7408   -0.1202   -1.2645 H   0  0  0  0  0  0  0  0  0  0  0  0
    1.8700   -0.6853   -3.2724 H   0  0  0  0  0  0  0  0  0  0  0  0
    2.9612   -1.7766   -5.1848 H   0  0  0  0  0  0  0  0  0  0  0  0
    3.0563   -4.2303   -5.3269 H   0  0  0  0  0  0  0  0  0  0  0  0
    2.0601   -5.6123   -3.5568 H   0  0  0  0  0  0  0  0  0  0  0  0
   -2.0081   -6.4421    3.6618 H   0  0  0  0  0  0  0  0  0  0  0  0
   -0.1145   -8.7625    2.4686 H   0  0  0  0  0  0  0  0  0  0  0  0
   -1.8935   -8.7057    2.4781 H   0  0  0  0  0  0  0  0  0  0  0  0
   -1.0161   -8.8575    0.9369 H   0  0  0  0  0  0  0  0  0  0  0  0
    1.3090   -6.5247   -2.1718 H   0  0  0  0  0  0  0  0  0  0  0  0
  1  2  1  0  0  0  0
  1 22  1  0  0  0  0
  1 23  1  0  0  0  0
  1 24  1  0  0  0  0
  2  3  1  0  0  0  0
  2 25  1  0  0  0  0
  2 26  1  0  0  0  0
  3  4  1  0  0  0  0
  3 27  1  0  0  0  0
  3 28  1  0  0  0  0
  4  5  1  0  0  0  0
  5 10  2  0  0  0  0
  5  6  1  0  0  0  0
  6  7  2  0  0  0  0
  6 29  1  0  0  0  0
  7  8  1  0  0  0  0
  7 30  1  0  0  0  0
  8  9  2  0  0  0  0
  8 31  1  0  0  0  0
  9 10  1  0  0  0  0
  9 32  1  0  0  0  0
 10 11  1  0  0  0  0
 11 19  2  0  0  0  0
 11 12  1  0  0  0  0
 12 13  1  0  0  0  0
 12 37  1  0  0  0  0
 13 14  1  0  0  0  0
 13 21  2  0  0  0  0
 14 18  2  0  0  0  0
 14 15  1  0  0  0  0
 15 16  2  0  0  0  0
 15 20  1  0  0  0  0
 16 17  1  0  0  0  0
 16 33  1  0  0  0  0
 17 18  1  0  0  0  0
 18 19  1  0  0  0  0
 20 34  1  0  0  0  0
 20 35  1  0  0  0  0
 20 36  1  0  0  0  0
M  END
$$$$
CHEMBL42435
  -OEChem-07121202283D

 37 39  0     0  0  0  0  0  0999 V2000
   -0.0187    1.5258    0.0104 C   0  0  0  0  0  0  0  0  0  0  0  0
    0.0021   -0.0041    0.0020 C   0  0  0  0  0  0  0  0  0  0  0  0
    0.7182   -0.4975   -1.2568 C   0  0  0  0  0  0  0  0  0  0  0  0
    0.7376   -1.9263   -1.2646 O   0  0  0  0  0  0  0  0  0  0  0  0
    1.3404   -2.5284   -2.3207 C   0  0  0  0  0  0  0  0  0  0  0  0
    1.9079   -1.7629   -3.3280 C   0  0  0  0  0  0  0  0  0  0  0  0
    2.5215   -2.3770   -4.4020 C   0  0  0  0  0  0  0  0  0  0  0  0
    2.5748   -3.7589   -4.4825 C   0  0  0  0  0  0  0  0  0  0  0  0
    2.0159   -4.5352   -3.4904 C   0  0  0  0  0  0  0  0  0  0  0  0
    1.3972   -3.9268   -2.3954 C   0  0  0  0  0  0  0  0  0  0  0  0
    0.8019   -4.7516   -1.3271 C   0  0  0  0  0  0  0  0  0  0  0  0
    0.2142   -4.1598   -0.3094 N   0  0  0  0  0  0  0  0  0  0  0  0
   -0.3454   -4.8459    0.6925 C   0  0  0  0  0  0  0  0  0  0  0  0
   -0.3087   -6.3265    0.6668 C   0  0  0  0  0  0  0  0  0  0  0  0
   -0.8381   -7.2824    1.6219 C   0  0  0  0  0  0  0  0  0  0  0  0
   -0.6857   -8.5955    1.3875 C   0  0  0  0  0  0  0  0  0  0  0  0
    0.1964   -8.6348   -0.1618 S   0  0  0  0  0  0  0  0  0  0  0  0
    0.3312   -6.8899   -0.4433 C   0  0  0  0  0  0  0  0  0  0  0  0
    0.8679   -6.1109   -1.4188 N   0  0  0  0  0  0  0  0  0  0  0  0
   -1.5501   -6.8067    2.8620 C   0  0  0  0  0  0  0  0  0  0  0  0
   -0.8807   -4.2581    1.6192 O   0  0  0  0  0  0  0  0  0  0  0  0
    1.0039    1.9031    0.0027 H   0  0  0  0  0  0  0  0  0  0  0  0
   -0.5459    1.8868   -0.8726 H   0  0  0  0  0  0  0  0  0  0  0  0
   -0.5289    1.8773    0.9072 H   0  0  0  0  0  0  0  0  0  0  0  0
    0.5293   -0.3651    0.8851 H   0  0  0  0  0  0  0  0  0  0  0  0
   -1.0205   -0.3814    0.0098 H   0  0  0  0  0  0  0  0  0  0  0  0
    0.1910   -0.1364   -2.1398 H   0  0  0  0  0  0  0  0  0  0  0  0
    1.7408   -0.1202   -1.2645 H   0  0  0  0  0  0  0  0  0  0  0  0
    1.8698   -0.6850   -3.2727 H   0  0  0  0  0  0  0  0  0  0  0  0
    2.9621   -1.7763   -5.1840 H   0  0  0  0  0  0  0  0  0  0  0  0
    3.0562   -4.2301   -5.3267 H   0  0  0  0  0  0  0  0  0  0  0  0
    2.0594   -5.6122   -3.5574 H   0  0  0  0  0  0  0  0  0  0  0  0
   -1.0169   -9.4272    1.9916 H   0  0  0  0  0  0  0  0  0  0  0  0
   -2.6150   -6.7047    2.6531 H   0  0  0  0  0  0  0  0  0  0  0  0
   -1.4049   -7.5301    3.6643 H   0  0  0  0  0  0  0  0  0  0  0  0
   -1.1453   -5.8413    3.1656 H   0  0  0  0  0  0  0  0  0  0  0  0
    1.3033   -6.5230   -2.1814 H   0  0  0  0  0  0  0  0  0  0  0  0
  1  2  1  0  0  0  0
  1 22  1  0  0  0  0
  1 23  1  0  0  0  0
  1 24  1  0  0  0  0
  2  3  1  0  0  0  0
  2 25  1  0  0  0  0
  2 26  1  0  0  0  0
  3  4  1  0  0  0  0
  3 27  1  0  0  0  0
  3 28  1  0  0  0  0
  4  5  1  0  0  0  0
  5 10  2  0  0  0  0
  5  6  1  0  0  0  0
  6  7  2  0  0  0  0
  6 29  1  0  0  0  0
  7  8  1  0  0  0  0
  7 30  1  0  0  0  0
  8  9  2  0  0  0  0
  8 31  1  0  0  0  0
  9 10  1  0  0  0  0
  9 32  1  0  0  0  0
 10 11  1  0  0  0  0
 11 19  1  0  0  0  0
 11 12  2  0  0  0  0
 12 13  1  0  0  0  0
 13 14  1  0  0  0  0
 13 21  2  0  0  0  0
 14 18  2  0  0  0  0
 14 15  1  0  0  0  0
 15 16  2  0  0  0  0
 15 20  1  0  0  0  0
 16 17  1  0  0  0  0
 16 33  1  0  0  0  0
 17 18  1  0  0  0  0
 18 19  1  0  0  0  0
 19 37  1  0  0  0  0
 20 34  1  0  0  0  0
 20 35  1  0  0  0  0
 20 36  1  0  0  0  0
M  END
$$$$
CHEMBL584270
  -OEChem-07121202283D

 61 64  0     1  0  0  0  0  0999 V2000
   -0.0187    1.5258    0.0104 C   0  0  0  0  0  0  0  0  0  0  0  0
    0.0021   -0.0041    0.0020 C   0  0  0  0  0  0  0  0  0  0  0  0
    0.7182   -0.4975   -1.2568 C   0  0  0  0  0  0  0  0  0  0  0  0
    0.7376   -1.9263   -1.2646 O   0  0  0  0  0  0  0  0  0  0  0  0
    1.3873   -2.4925   -2.4045 C   0  0  0  0  0  0  0  0  0  0  0  0
    1.3486   -4.0190   -2.3077 C   0  0  0  0  0  0  0  0  0  0  0  0
   -0.0404   -4.4782   -2.3855 N   0  0  0  0  0  0  0  0  0  0  0  0
   -0.7985   -4.6151   -1.2416 C   0  0  0  0  0  0  0  0  0  0  0  0
   -0.2676   -4.3226    0.0096 C   0  0  0  0  0  0  0  0  0  0  0  0
   -1.0732   -4.4766    1.1322 C   0  0  0  0  0  0  0  0  0  0  0  0
   -2.3312   -4.8964    1.0220 N   0  0  0  0  0  0  0  0  0  0  0  0
   -2.8751   -5.1844   -0.1385 C   0  0  0  0  0  0  0  0  0  0  0  0
   -2.1345   -5.0568   -1.3218 C   0  0  0  0  0  0  0  0  0  0  0  0
   -2.6890   -5.3508   -2.5140 N   0  0  0  0  0  0  0  0  0  0  0  0
   -2.0015   -5.2333   -3.6220 C   0  0  0  0  0  0  0  0  0  0  0  0
   -0.6020   -4.7693   -3.5802 C   0  0  0  0  0  0  0  0  0  0  0  0
    0.0399   -4.6535   -4.6077 O   0  0  0  0  0  0  0  0  0  0  0  0
   -2.5906   -5.5407   -4.8356 N   0  0  0  0  0  0  0  0  0  0  0  0
   -3.9821   -5.9969   -4.8797 C   0  0  0  0  0  0  0  0  0  0  0  0
   -4.3847   -6.2663   -6.3310 C   0  0  2  0  0  0  0  0  0  0  0  0
   -5.8820   -6.6365   -6.3990 C   0  0  0  0  0  0  0  0  0  0  0  0
   -5.8955   -7.7590   -7.4723 C   0  0  0  0  0  0  0  0  0  0  0  0
   -4.5338   -8.4453   -7.1973 C   0  0  0  0  0  0  0  0  0  0  0  0
   -3.6404   -7.3776   -6.8435 O   0  0  0  0  0  0  0  0  0  0  0  0
   -0.5220   -4.1688    2.4731 C   0  0  0  0  0  0  0  0  0  0  0  0
   -1.2760   -4.4203    3.6257 C   0  0  0  0  0  0  0  0  0  0  0  0
   -0.7199   -4.1169    4.8528 C   0  0  0  0  0  0  0  0  0  0  0  0
    0.5601   -3.5760    4.9035 C   0  0  0  0  0  0  0  0  0  0  0  0
    1.2467   -3.3498    3.7954 N   0  0  0  0  0  0  0  0  0  0  0  0
    0.7557   -3.6306    2.6051 C   0  0  0  0  0  0  0  0  0  0  0  0
    1.1121   -3.2757    6.1054 O   0  0  0  0  0  0  0  0  0  0  0  0
    2.4297   -2.7225    6.0941 C   0  0  0  0  0  0  0  0  0  0  0  0
    1.0039    1.9031    0.0027 H   0  0  0  0  0  0  0  0  0  0  0  0
   -0.5459    1.8868   -0.8726 H   0  0  0  0  0  0  0  0  0  0  0  0
   -0.5289    1.8773    0.9072 H   0  0  0  0  0  0  0  0  0  0  0  0
    0.5293   -0.3651    0.8851 H   0  0  0  0  0  0  0  0  0  0  0  0
   -1.0205   -0.3814    0.0098 H   0  0  0  0  0  0  0  0  0  0  0  0
    0.1910   -0.1364   -2.1398 H   0  0  0  0  0  0  0  0  0  0  0  0
    1.7408   -0.1202   -1.2645 H   0  0  0  0  0  0  0  0  0  0  0  0
    0.8740   -2.1729   -3.3114 H   0  0  0  0  0  0  0  0  0  0  0  0
    2.4238   -2.1566   -2.4361 H   0  0  0  0  0  0  0  0  0  0  0  0
    1.9203   -4.4498   -3.1297 H   0  0  0  0  0  0  0  0  0  0  0  0
    1.7828   -4.3340   -1.3589 H   0  0  0  0  0  0  0  0  0  0  0  0
    0.7526   -3.9821    0.1078 H   0  0  0  0  0  0  0  0  0  0  0  0
   -3.9000   -5.5223   -0.1812 H   0  0  0  0  0  0  0  0  0  0  0  0
   -2.0824   -5.4541   -5.6573 H   0  0  0  0  0  0  0  0  0  0  0  0
   -4.0825   -6.9136   -4.2986 H   0  0  0  0  0  0  0  0  0  0  0  0
   -4.6302   -5.2277   -4.4597 H   0  0  0  0  0  0  0  0  0  0  0  0
   -4.1933   -5.3815   -6.9381 H   0  0  0  0  0  0  0  0  0  0  0  0
   -6.2322   -7.0142   -5.4384 H   0  0  0  0  0  0  0  0  0  0  0  0
   -6.4782   -5.7833   -6.7224 H   0  0  0  0  0  0  0  0  0  0  0  0
   -6.7233   -8.4489   -7.3087 H   0  0  0  0  0  0  0  0  0  0  0  0
   -5.9284   -7.3403   -8.4782 H   0  0  0  0  0  0  0  0  0  0  0  0
   -4.6257   -9.1510   -6.3718 H   0  0  0  0  0  0  0  0  0  0  0  0
   -4.1789   -8.9543   -8.0935 H   0  0  0  0  0  0  0  0  0  0  0  0
   -2.2683   -4.8410    3.5568 H   0  0  0  0  0  0  0  0  0  0  0  0
   -1.2730   -4.2974    5.7627 H   0  0  0  0  0  0  0  0  0  0  0  0
    1.3481   -3.4370    1.7231 H   0  0  0  0  0  0  0  0  0  0  0  0
    3.1157   -3.4275    5.6246 H   0  0  0  0  0  0  0  0  0  0  0  0
    2.4269   -1.7889    5.5316 H   0  0  0  0  0  0  0  0  0  0  0  0
    2.7513   -2.5292    7.1175 H   0  0  0  0  0  0  0  0  0  0  0  0
  1  2  1  0  0  0  0
  1 33  1  0  0  0  0
  1 34  1  0  0  0  0
  1 35  1  0  0  0  0
  2  3  1  0  0  0  0
  2 36  1  0  0  0  0
  2 37  1  0  0  0  0
  3  4  1  0  0  0  0
  3 38  1  0  0  0  0
  3 39  1  0  0  0  0
  4  5  1  0  0  0  0
  5  6  1  0  0  0  0
  5 40  1  0  0  0  0
  5 41  1  0  0  0  0
  6  7  1  0  0  0  0
  6 42  1  0  0  0  0
  6 43  1  0  0  0  0
  7 16  1  0  0  0  0
  7  8  1  0  0  0  0
  8 13  2  0  0  0  0
  8  9  1  0  0  0  0
  9 10  2  0  0  0  0
  9 44  1  0  0  0  0
 10 11  1  0  0  0  0
 10 25  1  0  0  0  0
 11 12  2  0  0  0  0
 12 13  1  0  0  0  0
 12 45  1  0  0  0  0
 13 14  1  0  0  0  0
 14 15  2  0  0  0  0
 15 16  1  0  0  0  0
 15 18  1  0  0  0  0
 16 17  2  0  0  0  0
 18 19  1  0  0  0  0
 18 46  1  0  0  0  0
 19 20  1  0  0  0  0
 19 47  1  0  0  0  0
 19 48  1  0  0  0  0
 20 24  1  0  0  0  0
 20 21  1  0  0  0  0
 20 49  1  0  0  0  0
 21 22  1  0  0  0  0
 21 50  1  0  0  0  0
 21 51  1  0  0  0  0
 22 23  1  0  0  0  0
 22 52  1  0  0  0  0
 22 53  1  0  0  0  0
 23 24  1  0  0  0  0
 23 54  1  0  0  0  0
 23 55  1  0  0  0  0
 25 30  2  0  0  0  0
 25 26  1  0  0  0  0
 26 27  2  0  0  0  0
 26 56  1  0  0  0  0
 27 28  1  0  0  0  0
 27 57  1  0  0  0  0
 28 29  2  0  0  0  0
 28 31  1  0  0  0  0
 29 30  1  0  0  0  0
 30 58  1  0  0  0  0
 31 32  1  0  0  0  0
 32 59  1  0  0  0  0
 32 60  1  0  0  0  0
 32 61  1  0  0  0  0
M  END
$$$$
CHEMBL584270
  -OEChem-07121202283D

 61 64  0     1  0  0  0  0  0999 V2000
   -0.0187    1.5258    0.0104 C   0  0  0  0  0  0  0  0  0  0  0  0
    0.0021   -0.0041    0.0020 C   0  0  0  0  0  0  0  0  0  0  0  0
    0.7182   -0.4975   -1.2568 C   0  0  0  0  0  0  0  0  0  0  0  0
    0.7376   -1.9263   -1.2646 O   0  0  0  0  0  0  0  0  0  0  0  0
    1.3873   -2.4925   -2.4045 C   0  0  0  0  0  0  0  0  0  0  0  0
    1.3486   -4.0190   -2.3077 C   0  0  0  0  0  0  0  0  0  0  0  0
   -0.0404   -4.4782   -2.3855 N   0  0  0  0  0  0  0  0  0  0  0  0
   -0.7985   -4.6151   -1.2416 C   0  0  0  0  0  0  0  0  0  0  0  0
   -0.2676   -4.3226    0.0096 C   0  0  0  0  0  0  0  0  0  0  0  0
   -1.0732   -4.4766    1.1322 C   0  0  0  0  0  0  0  0  0  0  0  0
   -2.3312   -4.8964    1.0220 N   0  0  0  0  0  0  0  0  0  0  0  0
   -2.8751   -5.1844   -0.1385 C   0  0  0  0  0  0  0  0  0  0  0  0
   -2.1345   -5.0568   -1.3218 C   0  0  0  0  0  0  0  0  0  0  0  0
   -2.6890   -5.3508   -2.5140 N   0  0  0  0  0  0  0  0  0  0  0  0
   -2.0015   -5.2333   -3.6220 C   0  0  0  0  0  0  0  0  0  0  0  0
   -0.6020   -4.7693   -3.5802 C   0  0  0  0  0  0  0  0  0  0  0  0
    0.0399   -4.6535   -4.6077 O   0  0  0  0  0  0  0  0  0  0  0  0
   -2.5906   -5.5407   -4.8356 N   0  0  0  0  0  0  0  0  0  0  0  0
   -3.9821   -5.9969   -4.8797 C   0  0  0  0  0  0  0  0  0  0  0  0
   -4.3847   -6.2663   -6.3310 C   0  0  1  0  0  0  0  0  0  0  0  0
   -5.8755   -6.6820   -6.4072 C   0  0  0  0  0  0  0  0  0  0  0  0
   -6.2211   -6.2739   -7.8653 C   0  0  0  0  0  0  0  0  0  0  0  0
   -5.3524   -5.0138   -8.0675 C   0  0  0  0  0  0  0  0  0  0  0  0
   -4.2914   -5.0607   -7.1064 O   0  0  0  0  0  0  0  0  0  0  0  0
   -0.5220   -4.1688    2.4731 C   0  0  0  0  0  0  0  0  0  0  0  0
   -1.2760   -4.4203    3.6257 C   0  0  0  0  0  0  0  0  0  0  0  0
   -0.7199   -4.1169    4.8528 C   0  0  0  0  0  0  0  0  0  0  0  0
    0.5601   -3.5760    4.9035 C   0  0  0  0  0  0  0  0  0  0  0  0
    1.2467   -3.3498    3.7954 N   0  0  0  0  0  0  0  0  0  0  0  0
    0.7557   -3.6306    2.6051 C   0  0  0  0  0  0  0  0  0  0  0  0
    1.1121   -3.2757    6.1054 O   0  0  0  0  0  0  0  0  0  0  0  0
    2.4297   -2.7225    6.0941 C   0  0  0  0  0  0  0  0  0  0  0  0
    1.0039    1.9031    0.0027 H   0  0  0  0  0  0  0  0  0  0  0  0
   -0.5459    1.8868   -0.8726 H   0  0  0  0  0  0  0  0  0  0  0  0
   -0.5289    1.8773    0.9072 H   0  0  0  0  0  0  0  0  0  0  0  0
    0.5293   -0.3651    0.8851 H   0  0  0  0  0  0  0  0  0  0  0  0
   -1.0205   -0.3814    0.0098 H   0  0  0  0  0  0  0  0  0  0  0  0
    0.1910   -0.1364   -2.1398 H   0  0  0  0  0  0  0  0  0  0  0  0
    1.7408   -0.1202   -1.2645 H   0  0  0  0  0  0  0  0  0  0  0  0
    0.8740   -2.1729   -3.3114 H   0  0  0  0  0  0  0  0  0  0  0  0
    2.4238   -2.1566   -2.4361 H   0  0  0  0  0  0  0  0  0  0  0  0
    1.9203   -4.4498   -3.1297 H   0  0  0  0  0  0  0  0  0  0  0  0
    1.7828   -4.3340   -1.3589 H   0  0  0  0  0  0  0  0  0  0  0  0
    0.7526   -3.9821    0.1078 H   0  0  0  0  0  0  0  0  0  0  0  0
   -3.9000   -5.5223   -0.1812 H   0  0  0  0  0  0  0  0  0  0  0  0
   -2.0824   -5.4541   -5.6573 H   0  0  0  0  0  0  0  0  0  0  0  0
   -4.0825   -6.9136   -4.2986 H   0  0  0  0  0  0  0  0  0  0  0  0
   -4.6302   -5.2277   -4.4597 H   0  0  0  0  0  0  0  0  0  0  0  0
   -3.7515   -7.0425   -6.7608 H   0  0  0  0  0  0  0  0  0  0  0  0
   -5.9917   -7.7560   -6.2618 H   0  0  0  0  0  0  0  0  0  0  0  0
   -6.4763   -6.1230   -5.6899 H   0  0  0  0  0  0  0  0  0  0  0  0
   -5.9354   -7.0585   -8.5658 H   0  0  0  0  0  0  0  0  0  0  0  0
   -7.2802   -6.0343   -7.9603 H   0  0  0  0  0  0  0  0  0  0  0  0
   -4.9381   -5.0082   -9.0757 H   0  0  0  0  0  0  0  0  0  0  0  0
   -5.9554   -4.1197   -7.9093 H   0  0  0  0  0  0  0  0  0  0  0  0
   -2.2683   -4.8410    3.5568 H   0  0  0  0  0  0  0  0  0  0  0  0
   -1.2730   -4.2974    5.7627 H   0  0  0  0  0  0  0  0  0  0  0  0
    1.3481   -3.4370    1.7231 H   0  0  0  0  0  0  0  0  0  0  0  0
    3.1157   -3.4275    5.6246 H   0  0  0  0  0  0  0  0  0  0  0  0
    2.4269   -1.7889    5.5316 H   0  0  0  0  0  0  0  0  0  0  0  0
    2.7513   -2.5292    7.1175 H   0  0  0  0  0  0  0  0  0  0  0  0
  1  2  1  0  0  0  0
  1 33  1  0  0  0  0
  1 34  1  0  0  0  0
  1 35  1  0  0  0  0
  2  3  1  0  0  0  0
  2 36  1  0  0  0  0
  2 37  1  0  0  0  0
  3  4  1  0  0  0  0
  3 38  1  0  0  0  0
  3 39  1  0  0  0  0
  4  5  1  0  0  0  0
  5  6  1  0  0  0  0
  5 40  1  0  0  0  0
  5 41  1  0  0  0  0
  6  7  1  0  0  0  0
  6 42  1  0  0  0  0
  6 43  1  0  0  0  0
  7 16  1  0  0  0  0
  7  8  1  0  0  0  0
  8 13  2  0  0  0  0
  8  9  1  0  0  0  0
  9 10  2  0  0  0  0
  9 44  1  0  0  0  0
 10 11  1  0  0  0  0
 10 25  1  0  0  0  0
 11 12  2  0  0  0  0
 12 13  1  0  0  0  0
 12 45  1  0  0  0  0
 13 14  1  0  0  0  0
 14 15  2  0  0  0  0
 15 16  1  0  0  0  0
 15 18  1  0  0  0  0
 16 17  2  0  0  0  0
 18 19  1  0  0  0  0
 18 46  1  0  0  0  0
 19 20  1  0  0  0  0
 19 47  1  0  0  0  0
 19 48  1  0  0  0  0
 20 24  1  0  0  0  0
 20 21  1  0  0  0  0
 20 49  1  0  0  0  0
 21 22  1  0  0  0  0
 21 50  1  0  0  0  0
 21 51  1  0  0  0  0
 22 23  1  0  0  0  0
 22 52  1  0  0  0  0
 22 53  1  0  0  0  0
 23 24  1  0  0  0  0
 23 54  1  0  0  0  0
 23 55  1  0  0  0  0
 25 30  2  0  0  0  0
 25 26  1  0  0  0  0
 26 27  2  0  0  0  0
 26 56  1  0  0  0  0
 27 28  1  0  0  0  0
 27 57  1  0  0  0  0
 28 29  2  0  0  0  0
 28 31  1  0  0  0  0
 29 30  1  0  0  0  0
 30 58  1  0  0  0  0
 31 32  1  0  0  0  0
 32 59  1  0  0  0  0
 32 60  1  0  0  0  0
 32 61  1  0  0  0  0
M  END
$$$$
CHEMBL117583
  -OEChem-07121202283D

 35 38  0     0  0  0  0  0  0999 V2000
   -0.0164    1.3599    0.0095 C   0  0  0  0  0  0  0  0  0  0  0  0
    1.1681    2.0909    0.0021 C   0  0  0  0  0  0  0  0  0  0  0  0
    2.3794    1.4656   -0.0127 C   0  0  0  0  0  0  0  0  0  0  0  0
    2.4352    0.0650   -0.0207 C   0  0  0  0  0  0  0  0  0  0  0  0
    1.2287   -0.6768   -0.0132 C   0  0  0  0  0  0  0  0  0  0  0  0
    0.0021   -0.0041    0.0020 C   0  0  0  0  0  0  0  0  0  0  0  0
    1.3104   -2.0913   -0.0210 C   0  0  0  0  0  0  0  0  0  0  0  0
    2.5118   -2.6506   -0.0350 N   0  0  0  0  0  0  0  0  0  0  0  0
    3.6184   -1.9156   -0.0417 C   0  0  0  0  0  0  0  0  0  0  0  0
    3.6005   -0.5982   -0.0349 N   0  0  0  0  0  0  0  0  0  0  0  0
    4.8513   -2.5660   -0.0564 N   0  0  0  0  0  0  0  0  0  0  0  0
    6.0882   -1.9710   -0.0595 C   0  0  0  0  0  0  0  0  0  0  0  0
    6.9975   -2.9631   -0.0752 C   0  0  0  0  0  0  0  0  0  0  0  0
    6.3418   -4.1337   -0.0816 N   0  0  0  0  0  0  0  0  0  0  0  0
    5.0567   -3.9105   -0.0645 C   0  0  0  0  0  0  0  0  0  0  0  0
    0.1700   -2.8656   -0.0138 N   0  0  0  0  0  0  0  0  0  0  0  0
    0.2765   -4.3267   -0.0221 C   0  0  0  0  0  0  0  0  0  0  0  0
   -1.1039   -4.9311   -0.0117 C   0  0  0  0  0  0  0  0  0  0  0  0
   -1.8938   -5.2733   -1.0587 C   0  0  0  0  0  0  0  0  0  0  0  0
   -3.1386   -5.8199   -0.8088 C   0  0  0  0  0  0  0  0  0  0  0  0
   -3.5325   -5.9976    0.4759 C   0  0  0  0  0  0  0  0  0  0  0  0
   -2.1201   -5.3894    1.3828 S   0  0  0  0  0  0  0  0  0  0  0  0
   -0.9630    1.8796    0.0259 H   0  0  0  0  0  0  0  0  0  0  0  0
    1.1269    3.1701    0.0079 H   0  0  0  0  0  0  0  0  0  0  0  0
    3.2903    2.0457   -0.0187 H   0  0  0  0  0  0  0  0  0  0  0  0
   -0.9235   -0.5606    0.0082 H   0  0  0  0  0  0  0  0  0  0  0  0
    6.2926   -0.9106   -0.0512 H   0  0  0  0  0  0  0  0  0  0  0  0
    8.0702   -2.8384   -0.0820 H   0  0  0  0  0  0  0  0  0  0  0  0
    4.2853   -4.6664   -0.0604 H   0  0  0  0  0  0  0  0  0  0  0  0
   -0.7031   -2.4430   -0.0032 H   0  0  0  0  0  0  0  0  0  0  0  0
    0.8068   -4.6472   -0.9188 H   0  0  0  0  0  0  0  0  0  0  0  0
    0.8240   -4.6561    0.8610 H   0  0  0  0  0  0  0  0  0  0  0  0
   -1.5558   -5.1208   -2.0731 H   0  0  0  0  0  0  0  0  0  0  0  0
   -3.7877   -6.1009   -1.6250 H   0  0  0  0  0  0  0  0  0  0  0  0
   -4.4589   -6.4051    0.8531 H   0  0  0  0  0  0  0  0  0  0  0  0
  1  6  2  0  0  0  0
  1  2  1  0  0  0  0
  1 23  1  0  0  0  0
  2  3  2  0  0  0  0
  2 24  1  0  0  0  0
  3  4  1  0  0  0  0
  3 25  1  0  0  0  0
  4 10  2  0  0  0  0
  4  5  1  0  0  0  0
  5  6  1  0  0  0  0
  5  7  2  0  0  0  0
  6 26  1  0  0  0  0
  7  8  1  0  0  0  0
  7 16  1  0  0  0  0
  8  9  2  0  0  0  0
  9 10  1  0  0  0  0
  9 11  1  0  0  0  0
 11 15  1  0  0  0  0
 11 12  1  0  0  0  0
 12 13  2  0  0  0  0
 12 27  1  0  0  0  0
 13 14  1  0  0  0  0
 13 28  1  0  0  0  0
 14 15  2  0  0  0  0
 15 29  1  0  0  0  0
 16 17  1  0  0  0  0
 16 30  1  0  0  0  0
 17 18  1  0  0  0  0
 17 31  1  0  0  0  0
 17 32  1  0  0  0  0
 18 22  1  0  0  0  0
 18 19  2  0  0  0  0
 19 20  1  0  0  0  0
 19 33  1  0  0  0  0
 20 21  2  0  0  0  0
 20 34  1  0  0  0  0
 21 22  1  0  0  0  0
 21 35  1  0  0  0  0
M  END
$$$$
CHEMBL25413
  -OEChem-07121202283D

 64 66  0     0  0  0  0  0  0999 V2000
   -0.4663    1.5090   -0.7987 C   0  0  0  0  0  0  0  0  0  0  0  0
   -0.2673    0.0593   -0.7288 N   0  0  0  0  0  0  0  0  0  0  0  0
    0.7410   -0.5834   -1.5753 C   0  0  0  0  0  0  0  0  0  0  0  0
   -1.0117   -0.6832    0.1144 C   0  0  0  0  0  0  0  0  0  0  0  0
   -1.9123   -0.1660    0.7464 O   0  0  0  0  0  0  0  0  0  0  0  0
   -0.7335   -2.1251    0.2706 C   0  0  0  0  0  0  0  0  0  0  0  0
    0.5683   -2.5684    0.3981 C   0  0  0  0  0  0  0  0  0  0  0  0
    0.8391   -3.9401    0.5470 C   0  0  0  0  0  0  0  0  0  0  0  0
    2.1654   -4.3890    0.6767 C   0  0  0  0  0  0  0  0  0  0  0  0
    2.4239   -5.7213    0.8210 C   0  0  0  0  0  0  0  0  0  0  0  0
    1.3779   -6.6559    0.8423 C   0  0  0  0  0  0  0  0  0  0  0  0
    0.0705   -6.2456    0.7180 C   0  0  0  0  0  0  0  0  0  0  0  0
   -0.2202   -4.8811    0.5681 C   0  0  0  0  0  0  0  0  0  0  0  0
   -1.5617   -4.4466    0.4394 C   0  0  0  0  0  0  0  0  0  0  0  0
   -1.8363   -3.0850    0.2964 C   0  0  0  0  0  0  0  0  0  0  0  0
   -3.2262   -2.6196    0.1678 C   0  0  0  0  0  0  0  0  0  0  0  0
   -3.7372   -2.5280   -0.9313 O   0  0  0  0  0  0  0  0  0  0  0  0
   -3.9329   -2.2947    1.2689 O   0  0  0  0  0  0  0  0  0  0  0  0
   -5.2765   -1.8505    1.0699 C   0  0  0  0  0  0  0  0  0  0  0  0
   -2.6658   -5.4287    0.4615 C   0  0  0  0  0  0  0  0  0  0  0  0
   -2.7763   -6.3798   -0.5549 C   0  0  0  0  0  0  0  0  0  0  0  0
   -3.8106   -7.2978   -0.5320 C   0  0  0  0  0  0  0  0  0  0  0  0
   -4.7410   -7.2739    0.5029 C   0  0  0  0  0  0  0  0  0  0  0  0
   -4.6332   -6.3267    1.5169 C   0  0  0  0  0  0  0  0  0  0  0  0
   -3.5970   -5.4108    1.5020 C   0  0  0  0  0  0  0  0  0  0  0  0
   -5.5444   -6.3053    2.5262 O   0  0  0  0  0  0  0  0  0  0  0  0
   -5.3734   -5.3063    3.5336 C   0  0  0  0  0  0  0  0  0  0  0  0
   -5.7572   -8.1772    0.5230 O   0  0  0  0  0  0  0  0  0  0  0  0
   -5.5159   -9.4102    1.2040 C   0  0  0  0  0  0  0  0  0  0  0  0
   -3.9188   -8.2243   -1.5216 O   0  0  0  0  0  0  0  0  0  0  0  0
   -2.9297   -8.1909   -2.5525 C   0  0  0  0  0  0  0  0  0  0  0  0
    1.6583   -7.9775    0.9865 O   0  0  0  0  0  0  0  0  0  0  0  0
    0.5491   -8.8783    1.0005 C   0  0  0  0  0  0  0  0  0  0  0  0
    3.7082   -6.1471    0.9449 O   0  0  0  0  0  0  0  0  0  0  0  0
    4.7289   -5.1474    0.9152 C   0  0  0  0  0  0  0  0  0  0  0  0
    0.2204    1.9351   -1.5301 H   0  0  0  0  0  0  0  0  0  0  0  0
   -1.4929    1.7208   -1.0977 H   0  0  0  0  0  0  0  0  0  0  0  0
   -0.2746    1.9497    0.1796 H   0  0  0  0  0  0  0  0  0  0  0  0
    1.6781   -0.6667   -1.0248 H   0  0  0  0  0  0  0  0  0  0  0  0
    0.3967   -1.5778   -1.8592 H   0  0  0  0  0  0  0  0  0  0  0  0
    0.8984    0.0163   -2.4718 H   0  0  0  0  0  0  0  0  0  0  0  0
    1.3820   -1.8583    0.3830 H   0  0  0  0  0  0  0  0  0  0  0  0
    2.9795   -3.6795    0.6619 H   0  0  0  0  0  0  0  0  0  0  0  0
   -0.7291   -6.9713    0.7350 H   0  0  0  0  0  0  0  0  0  0  0  0
   -5.7304   -1.6224    2.0342 H   0  0  0  0  0  0  0  0  0  0  0  0
   -5.2747   -0.9551    0.4482 H   0  0  0  0  0  0  0  0  0  0  0  0
   -5.8491   -2.6350    0.5753 H   0  0  0  0  0  0  0  0  0  0  0  0
   -2.0550   -6.3983   -1.3585 H   0  0  0  0  0  0  0  0  0  0  0  0
   -3.5108   -4.6792    2.2918 H   0  0  0  0  0  0  0  0  0  0  0  0
   -4.4050   -5.4389    4.0160 H   0  0  0  0  0  0  0  0  0  0  0  0
   -5.4193   -4.3178    3.0766 H   0  0  0  0  0  0  0  0  0  0  0  0
   -6.1653   -5.4002    4.2766 H   0  0  0  0  0  0  0  0  0  0  0  0
   -4.6759   -9.9246    0.7372 H   0  0  0  0  0  0  0  0  0  0  0  0
   -5.2828   -9.2082    2.2494 H   0  0  0  0  0  0  0  0  0  0  0  0
   -6.4049  -10.0380    1.1446 H   0  0  0  0  0  0  0  0  0  0  0  0
   -3.1324   -8.9804   -3.2762 H   0  0  0  0  0  0  0  0  0  0  0  0
   -2.9590   -7.2230   -3.0529 H   0  0  0  0  0  0  0  0  0  0  0  0
   -1.9433   -8.3439   -2.1147 H   0  0  0  0  0  0  0  0  0  0  0  0
    0.9115   -9.8991    1.1213 H   0  0  0  0  0  0  0  0  0  0  0  0
   -0.1125   -8.6271    1.8295 H   0  0  0  0  0  0  0  0  0  0  0  0
    0.0021   -8.7957    0.0612 H   0  0  0  0  0  0  0  0  0  0  0  0
    4.6875   -4.6139   -0.0344 H   0  0  0  0  0  0  0  0  0  0  0  0
    4.5731   -4.4447    1.7338 H   0  0  0  0  0  0  0  0  0  0  0  0
    5.7046   -5.6210    1.0237 H   0  0  0  0  0  0  0  0  0  0  0  0
  1  2  1  0  0  0  0
  1 36  1  0  0  0  0
  1 37  1  0  0  0  0
  1 38  1  0  0  0  0
  2  3  1  0  0  0  0
  2  4  1  0  0  0  0
  3 39  1  0  0  0  0
  3 40  1  0  0  0  0
  3 41  1  0  0  0  0
  4  5  2  0  0  0  0
  4  6  1  0  0  0  0
  6 15  2  0  0  0  0
  6  7  1  0  0  0  0
  7  8  2  0  0  0  0
  7 42  1  0  0  0  0
  8 13  1  0  0  0  0
  8  9  1  0  0  0  0
  9 10  2  0  0  0  0
  9 43  1  0  0  0  0
 10 11  1  0  0  0  0
 10 34  1  0  0  0  0
 11 12  2  0  0  0  0
 11 32  1  0  0  0  0
 12 13  1  0  0  0  0
 12 44  1  0  0  0  0
 13 14  2  0  0  0  0
 14 15  1  0  0  0  0
 14 20  1  0  0  0  0
 15 16  1  0  0  0  0
 16 17  2  0  0  0  0
 16 18  1  0  0  0  0
 18 19  1  0  0  0  0
 19 45  1  0  0  0  0
 19 46  1  0  0  0  0
 19 47  1  0  0  0  0
 20 25  2  0  0  0  0
 20 21  1  0  0  0  0
 21 22  2  0  0  0  0
 21 48  1  0  0  0  0
 22 23  1  0  0  0  0
 22 30  1  0  0  0  0
 23 24  2  0  0  0  0
 23 28  1  0  0  0  0
 24 25  1  0  0  0  0
 24 26  1  0  0  0  0
 25 49  1  0  0  0  0
 26 27  1  0  0  0  0
 27 50  1  0  0  0  0
 27 51  1  0  0  0  0
 27 52  1  0  0  0  0
 28 29  1  0  0  0  0
 29 53  1  0  0  0  0
 29 54  1  0  0  0  0
 29 55  1  0  0  0  0
 30 31  1  0  0  0  0
 31 56  1  0  0  0  0
 31 57  1  0  0  0  0
 31 58  1  0  0  0  0
 32 33  1  0  0  0  0
 33 59  1  0  0  0  0
 33 60  1  0  0  0  0
 33 61  1  0  0  0  0
 34 35  1  0  0  0  0
 35 62  1  0  0  0  0
 35 63  1  0  0  0  0
 35 64  1  0  0  0  0
M  END
$$$$
CHEMBL107349
  -OEChem-07121202283D

 62 65  0     0  0  0  0  0  0999 V2000
   -0.0187    1.5258    0.0104 C   0  0  0  0  0  0  0  0  0  0  0  0
    0.0021   -0.0041    0.0020 C   0  0  0  0  0  0  0  0  0  0  0  0
    0.7106   -0.4894    1.1889 N   0  0  0  0  0  0  0  0  0  0  0  0
    2.0800   -0.6958    1.1414 C   0  0  0  0  0  0  0  0  0  0  0  0
    2.7280   -1.1565    2.2824 C   0  0  0  0  0  0  0  0  0  0  0  0
    1.9785   -1.3984    3.4472 C   0  0  0  0  0  0  0  0  0  0  0  0
    2.5256   -1.8019    4.4587 O   0  0  0  0  0  0  0  0  0  0  0  0
    0.6475   -1.1786    3.4335 N   0  0  0  0  0  0  0  0  0  0  0  0
    0.0316   -0.7291    2.3265 C   0  0  0  0  0  0  0  0  0  0  0  0
   -1.1691   -0.5381    2.3520 O   0  0  0  0  0  0  0  0  0  0  0  0
   -0.1376   -1.4292    4.6447 C   0  0  0  0  0  0  0  0  0  0  0  0
   -0.1906   -0.1554    5.4907 C   0  0  0  0  0  0  0  0  0  0  0  0
    4.0713   -1.2704    1.9500 N   0  0  0  0  0  0  0  0  0  0  0  0
    4.1873   -0.8844    0.6518 C   0  0  0  0  0  0  0  0  0  0  0  0
    3.0010   -0.5476    0.1878 N   0  0  0  0  0  0  0  0  0  0  0  0
    5.3608   -0.8502   -0.0658 N   0  0  0  0  0  0  0  0  0  0  0  0
    5.3520   -0.4129   -1.4640 C   0  0  0  0  0  0  0  0  0  0  0  0
    5.0057   -1.5984   -2.3670 C   0  0  0  0  0  0  0  0  0  0  0  0
    4.9965   -1.1417   -3.8272 C   0  0  0  0  0  0  0  0  0  0  0  0
    6.3783   -0.6020   -4.2015 C   0  0  0  0  0  0  0  0  0  0  0  0
    6.7247    0.5835   -3.2985 C   0  0  0  0  0  0  0  0  0  0  0  0
    6.7339    0.1268   -1.8383 C   0  0  0  0  0  0  0  0  0  0  0  0
    5.1543   -1.7192    2.8286 C   0  0  0  0  0  0  0  0  0  0  0  0
    5.3087   -3.2138    2.7123 C   0  0  0  0  0  0  0  0  0  0  0  0
    4.5892   -4.0488    3.5471 C   0  0  0  0  0  0  0  0  0  0  0  0
    4.7286   -5.4196    3.4437 C   0  0  0  0  0  0  0  0  0  0  0  0
    5.5908   -5.9590    2.5012 C   0  0  0  0  0  0  0  0  0  0  0  0
    6.3127   -5.1190    1.6628 C   0  0  0  0  0  0  0  0  0  0  0  0
    6.1652   -3.7475    1.7674 C   0  0  0  0  0  0  0  0  0  0  0  0
    7.1537   -5.6408    0.7433 F   0  0  0  0  0  0  0  0  0  0  0  0
    5.7298   -7.3075    2.3981 O   0  0  0  0  0  0  0  0  0  0  0  0
    4.9566   -8.1097    3.2929 C   0  0  0  0  0  0  0  0  0  0  0  0
    1.0039    1.9031    0.0027 H   0  0  0  0  0  0  0  0  0  0  0  0
   -0.5459    1.8868   -0.8726 H   0  0  0  0  0  0  0  0  0  0  0  0
   -0.5289    1.8773    0.9072 H   0  0  0  0  0  0  0  0  0  0  0  0
   -1.0205   -0.3814    0.0098 H   0  0  0  0  0  0  0  0  0  0  0  0
    0.5123   -0.3556   -0.8948 H   0  0  0  0  0  0  0  0  0  0  0  0
   -1.1498   -1.7234    4.3671 H   0  0  0  0  0  0  0  0  0  0  0  0
    0.3282   -2.2288    5.2206 H   0  0  0  0  0  0  0  0  0  0  0  0
   -0.6563    0.6442    4.9147 H   0  0  0  0  0  0  0  0  0  0  0  0
   -0.7748   -0.3418    6.3918 H   0  0  0  0  0  0  0  0  0  0  0  0
    0.8216    0.1388    5.7682 H   0  0  0  0  0  0  0  0  0  0  0  0
    6.1940   -1.1157    0.3541 H   0  0  0  0  0  0  0  0  0  0  0  0
    4.6077    0.3727   -1.5942 H   0  0  0  0  0  0  0  0  0  0  0  0
    5.7500   -2.3840   -2.2367 H   0  0  0  0  0  0  0  0  0  0  0  0
    4.0212   -1.9828   -2.1003 H   0  0  0  0  0  0  0  0  0  0  0  0
    4.7497   -1.9863   -4.4705 H   0  0  0  0  0  0  0  0  0  0  0  0
    4.2521   -0.3561   -3.9575 H   0  0  0  0  0  0  0  0  0  0  0  0
    7.1227   -1.3876   -4.0712 H   0  0  0  0  0  0  0  0  0  0  0  0
    6.3718   -0.2766   -5.2418 H   0  0  0  0  0  0  0  0  0  0  0  0
    7.7091    0.9680   -3.5651 H   0  0  0  0  0  0  0  0  0  0  0  0
    5.9803    1.3691   -3.4288 H   0  0  0  0  0  0  0  0  0  0  0  0
    6.9806    0.9714   -1.1949 H   0  0  0  0  0  0  0  0  0  0  0  0
    7.4782   -0.6588   -1.7080 H   0  0  0  0  0  0  0  0  0  0  0  0
    6.0851   -1.2339    2.5351 H   0  0  0  0  0  0  0  0  0  0  0  0
    4.9175   -1.4575    3.8599 H   0  0  0  0  0  0  0  0  0  0  0  0
    3.9176   -3.6289    4.2813 H   0  0  0  0  0  0  0  0  0  0  0  0
    4.1665   -6.0706    4.0969 H   0  0  0  0  0  0  0  0  0  0  0  0
    6.7225   -3.0933    1.1133 H   0  0  0  0  0  0  0  0  0  0  0  0
    5.2224   -7.8657    4.3215 H   0  0  0  0  0  0  0  0  0  0  0  0
    3.8965   -7.9115    3.1348 H   0  0  0  0  0  0  0  0  0  0  0  0
    5.1612   -9.1637    3.1051 H   0  0  0  0  0  0  0  0  0  0  0  0
  1  2  1  0  0  0  0
  1 33  1  0  0  0  0
  1 34  1  0  0  0  0
  1 35  1  0  0  0  0
  2  3  1  0  0  0  0
  2 36  1  0  0  0  0
  2 37  1  0  0  0  0
  3  9  1  0  0  0  0
  3  4  1  0  0  0  0
  4 15  1  0  0  0  0
  4  5  2  0  0  0  0
  5  6  1  0  0  0  0
  5 13  1  0  0  0  0
  6  7  2  0  0  0  0
  6  8  1  0  0  0  0
  8  9  1  0  0  0  0
  8 11  1  0  0  0  0
  9 10  2  0  0  0  0
 11 12  1  0  0  0  0
 11 38  1  0  0  0  0
 11 39  1  0  0  0  0
 12 40  1  0  0  0  0
 12 41  1  0  0  0  0
 12 42  1  0  0  0  0
 13 14  1  0  0  0  0
 13 23  1  0  0  0  0
 14 15  2  0  0  0  0
 14 16  1  0  0  0  0
 16 17  1  0  0  0  0
 16 43  1  0  0  0  0
 17 22  1  0  0  0  0
 17 18  1  0  0  0  0
 17 44  1  0  0  0  0
 18 19  1  0  0  0  0
 18 45  1  0  0  0  0
 18 46  1  0  0  0  0
 19 20  1  0  0  0  0
 19 47  1  0  0  0  0
 19 48  1  0  0  0  0
 20 21  1  0  0  0  0
 20 49  1  0  0  0  0
 20 50  1  0  0  0  0
 21 22  1  0  0  0  0
 21 51  1  0  0  0  0
 21 52  1  0  0  0  0
 22 53  1  0  0  0  0
 22 54  1  0  0  0  0
 23 24  1  0  0  0  0
 23 55  1  0  0  0  0
 23 56  1  0  0  0  0
 24 29  2  0  0  0  0
 24 25  1  0  0  0  0
 25 26  2  0  0  0  0
 25 57  1  0  0  0  0
 26 27  1  0  0  0  0
 26 58  1  0  0  0  0
 27 28  2  0  0  0  0
 27 31  1  0  0  0  0
 28 29  1  0  0  0  0
 28 30  1  0  0  0  0
 29 59  1  0  0  0  0
 31 32  1  0  0  0  0
 32 60  1  0  0  0  0
 32 61  1  0  0  0  0
 32 62  1  0  0  0  0
M  END
$$$$
CHEMBL342459
  -OEChem-07121202283D

 58 64  0     1  0  0  0  0  0999 V2000
   -0.1930    1.4707    0.2377 C   0  0  0  0  0  0  0  0  0  0  0  0
    0.9859    2.1923    0.2195 C   0  0  0  0  0  0  0  0  0  0  0  0
    2.1990    1.5328    0.1530 C   0  0  0  0  0  0  0  0  0  0  0  0
    2.2332    0.1517    0.1051 C   0  0  0  0  0  0  0  0  0  0  0  0
    1.0543   -0.5699    0.1241 C   0  0  0  0  0  0  0  0  0  0  0  0
   -0.1589    0.0896    0.1892 C   0  0  0  0  0  0  0  0  0  0  0  0
    3.5556   -0.5672    0.0316 C   0  0  0  0  0  0  0  0  0  0  0  0
    4.0355   -0.8467    1.3872 N   0  0  0  0  0  0  0  0  0  0  0  0
    4.8679    0.1511    2.0383 C   0  0  0  0  0  0  0  0  0  0  0  0
    5.2195   -0.2369    3.4376 C   0  0  0  0  0  0  0  0  0  0  0  0
    5.8936    0.5351    4.0861 O   0  0  0  0  0  0  0  0  0  0  0  0
    4.8412   -1.3755    4.0223 N   0  0  0  0  0  0  0  0  0  0  0  0
    4.0983   -2.4236    3.3240 C   0  0  1  0  0  0  0  0  0  0  0  0
    3.1994   -2.6573    3.8943 H   0  0  0  0  0  0  0  0  0  0  0  0
    3.6795   -1.9980    1.9538 C   0  0  0  0  0  0  0  0  0  0  0  0
    2.9739   -2.7506    1.3161 O   0  0  0  0  0  0  0  0  0  0  0  0
    4.9694   -3.6846    3.2342 C   0  0  0  0  0  0  0  0  0  0  0  0
    5.5985   -3.9368    4.5806 C   0  0  0  0  0  0  0  0  0  0  0  0
    6.1961   -5.1592    5.0782 C   0  0  0  0  0  0  0  0  0  0  0  0
    6.3736   -6.4259    4.5133 C   0  0  0  0  0  0  0  0  0  0  0  0
    6.9947   -7.3710    5.2920 C   0  0  0  0  0  0  0  0  0  0  0  0
    7.4291   -7.0949    6.5781 C   0  0  0  0  0  0  0  0  0  0  0  0
    7.2676   -5.8501    7.1613 C   0  0  0  0  0  0  0  0  0  0  0  0
    6.6407   -4.8704    6.3939 C   0  0  0  0  0  0  0  0  0  0  0  0
    6.3274   -3.5669    6.6517 N   0  0  0  0  0  0  0  0  0  0  0  0
    6.5189   -3.1002    7.4803 H   0  0  0  0  0  0  0  0  0  0  0  0
    5.7022   -3.0171    5.5641 C   0  0  0  0  0  0  0  0  0  0  0  0
    5.1849   -1.6017    5.4423 C   0  0  1  0  0  0  0  0  0  0  0  0
    4.2972   -1.4773    6.0625 H   0  0  0  0  0  0  0  0  0  0  0  0
    6.2518   -0.6280    5.8722 C   0  0  0  0  0  0  0  0  0  0  0  0
    5.9567    0.3527    6.8008 C   0  0  0  0  0  0  0  0  0  0  0  0
    6.9321    1.2479    7.1987 C   0  0  0  0  0  0  0  0  0  0  0  0
    8.2086    1.1643    6.6667 C   0  0  0  0  0  0  0  0  0  0  0  0
    8.5058    0.1764    5.7312 C   0  0  0  0  0  0  0  0  0  0  0  0
    7.5248   -0.7210    5.3414 C   0  0  0  0  0  0  0  0  0  0  0  0
    9.8142    0.3030    5.3637 O   0  0  0  0  0  0  0  0  0  0  0  0
   10.2026    1.6272    5.7748 C   0  0  0  0  0  0  0  0  0  0  0  0
    9.3309    1.9098    6.8854 O   0  0  0  0  0  0  0  0  0  0  0  0
   -1.1406    1.9857    0.2942 H   0  0  0  0  0  0  0  0  0  0  0  0
    0.9592    3.2713    0.2570 H   0  0  0  0  0  0  0  0  0  0  0  0
    3.1200    2.0966    0.1381 H   0  0  0  0  0  0  0  0  0  0  0  0
    1.0810   -1.6489    0.0864 H   0  0  0  0  0  0  0  0  0  0  0  0
   -1.0799   -0.4742    0.2038 H   0  0  0  0  0  0  0  0  0  0  0  0
    3.4298   -1.5048   -0.5099 H   0  0  0  0  0  0  0  0  0  0  0  0
    4.2808    0.0584   -0.4888 H   0  0  0  0  0  0  0  0  0  0  0  0
    5.7860    0.2756    1.4641 H   0  0  0  0  0  0  0  0  0  0  0  0
    4.3328    1.1005    2.0579 H   0  0  0  0  0  0  0  0  0  0  0  0
    4.3504   -4.5371    2.9547 H   0  0  0  0  0  0  0  0  0  0  0  0
    5.7501   -3.5370    2.4880 H   0  0  0  0  0  0  0  0  0  0  0  0
    6.0378   -6.6504    3.5117 H   0  0  0  0  0  0  0  0  0  0  0  0
    7.1491   -8.3611    4.8892 H   0  0  0  0  0  0  0  0  0  0  0  0
    7.9101   -7.8780    7.1455 H   0  0  0  0  0  0  0  0  0  0  0  0
    7.6118   -5.6473    8.1647 H   0  0  0  0  0  0  0  0  0  0  0  0
    4.9620    0.4199    7.2161 H   0  0  0  0  0  0  0  0  0  0  0  0
    6.6988    2.0131    7.9243 H   0  0  0  0  0  0  0  0  0  0  0  0
    7.7536   -1.4910    4.6194 H   0  0  0  0  0  0  0  0  0  0  0  0
   11.2449    1.6390    6.0934 H   0  0  0  0  0  0  0  0  0  0  0  0
   10.0394    2.3419    4.9682 H   0  0  0  0  0  0  0  0  0  0  0  0
  1  6  2  0  0  0  0
  1  2  1  0  0  0  0
  1 39  1  0  0  0  0
  2  3  2  0  0  0  0
  2 40  1  0  0  0  0
  3  4  1  0  0  0  0
  3 41  1  0  0  0  0
  4  5  2  0  0  0  0
  4  7  1  0  0  0  0
  5  6  1  0  0  0  0
  5 42  1  0  0  0  0
  6 43  1  0  0  0  0
  7  8  1  0  0  0  0
  7 44  1  0  0  0  0
  7 45  1  0  0  0  0
  8 15  1  0  0  0  0
  8  9  1  0  0  0  0
  9 10  1  0  0  0  0
  9 46  1  0  0  0  0
  9 47  1  0  0  0  0
 10 11  2  0  0  0  0
 10 12  1  0  0  0  0
 12 28  1  0  0  0  0
 12 13  1  0  0  0  0
 13 14  1  0  0  0  0
 13 15  1  0  0  0  0
 13 17  1  0  0  0  0
 15 16  2  0  0  0  0
 17 18  1  0  0  0  0
 17 48  1  0  0  0  0
 17 49  1  0  0  0  0
 18 27  2  0  0  0  0
 18 19  1  0  0  0  0
 19 24  2  0  0  0  0
 19 20  1  0  0  0  0
 20 21  2  0  0  0  0
 20 50  1  0  0  0  0
 21 22  1  0  0  0  0
 21 51  1  0  0  0  0
 22 23  2  0  0  0  0
 22 52  1  0  0  0  0
 23 24  1  0  0  0  0
 23 53  1  0  0  0  0
 24 25  1  0  0  0  0
 25 26  1  0  0  0  0
 25 27  1  0  0  0  0
 27 28  1  0  0  0  0
 28 29  1  0  0  0  0
 28 30  1  0  0  0  0
 30 35  2  0  0  0  0
 30 31  1  0  0  0  0
 31 32  2  0  0  0  0
 31 54  1  0  0  0  0
 32 33  1  0  0  0  0
 32 55  1  0  0  0  0
 33 38  1  0  0  0  0
 33 34  2  0  0  0  0
 34 35  1  0  0  0  0
 34 36  1  0  0  0  0
 35 56  1  0  0  0  0
 36 37  1  0  0  0  0
 37 38  1  0  0  0  0
 37 57  1  0  0  0  0
 37 58  1  0  0  0  0
M  END
$$$$
CHEMBL298295
  -OEChem-07121202283D

 45 47  0     0  0  0  0  0  0999 V2000
   -0.0187    1.5258    0.0104 C   0  0  0  0  0  0  0  0  0  0  0  0
    0.0021   -0.0041    0.0020 C   0  0  0  0  0  0  0  0  0  0  0  0
    0.7182   -0.4975   -1.2568 C   0  0  0  0  0  0  0  0  0  0  0  0
    0.7376   -1.9263   -1.2646 O   0  0  0  0  0  0  0  0  0  0  0  0
    1.3405   -2.5285   -2.3209 C   0  0  0  0  0  0  0  0  0  0  0  0
    1.9079   -1.7631   -3.3280 C   0  0  0  0  0  0  0  0  0  0  0  0
    2.5211   -2.3772   -4.4025 C   0  0  0  0  0  0  0  0  0  0  0  0
    2.5744   -3.7590   -4.4829 C   0  0  0  0  0  0  0  0  0  0  0  0
    2.0150   -4.5352   -3.4908 C   0  0  0  0  0  0  0  0  0  0  0  0
    1.3973   -3.9268   -2.3956 C   0  0  0  0  0  0  0  0  0  0  0  0
    0.8027   -4.7516   -1.3264 C   0  0  0  0  0  0  0  0  0  0  0  0
    0.2208   -4.1483   -0.3172 N   0  0  0  0  0  0  0  0  0  0  0  0
   -0.3394   -4.8338    0.6869 C   0  0  0  0  0  0  0  0  0  0  0  0
   -0.3062   -6.2386    0.6644 C   0  0  0  0  0  0  0  0  0  0  0  0
   -0.9595   -6.6899    1.8264 C   0  0  0  0  0  0  0  0  0  0  0  0
   -1.3593   -5.6491    2.5037 N   0  0  0  0  0  0  0  0  0  0  0  0
   -0.9917   -4.4798    1.8263 N   0  0  0  0  0  0  0  0  0  0  0  0
   -1.2624   -3.1101    2.2698 C   0  0  0  0  0  0  0  0  0  0  0  0
   -2.6108   -2.6504    1.7117 C   0  0  0  0  0  0  0  0  0  0  0  0
   -1.1630   -8.1301    2.2209 C   0  0  0  0  0  0  0  0  0  0  0  0
    0.3459   -6.8987   -0.4660 C   0  0  0  0  0  0  0  0  0  0  0  0
    0.8763   -6.1125   -1.4316 N   0  0  0  0  0  0  0  0  0  0  0  0
    0.4052   -8.1134   -0.5385 O   0  0  0  0  0  0  0  0  0  0  0  0
    3.2345   -4.4048   -5.6397 N   0  3  0  0  0  0  0  0  0  0  0  0
    3.7256   -3.7265   -6.5117 O   0  0  0  0  0  0  0  0  0  0  0  0
    3.2825   -5.6106   -5.7126 O   0  5  0  0  0  0  0  0  0  0  0  0
    1.0039    1.9031    0.0027 H   0  0  0  0  0  0  0  0  0  0  0  0
   -0.5459    1.8868   -0.8726 H   0  0  0  0  0  0  0  0  0  0  0  0
   -0.5289    1.8773    0.9072 H   0  0  0  0  0  0  0  0  0  0  0  0
    0.5293   -0.3651    0.8851 H   0  0  0  0  0  0  0  0  0  0  0  0
   -1.0205   -0.3814    0.0098 H   0  0  0  0  0  0  0  0  0  0  0  0
    0.1910   -0.1364   -2.1398 H   0  0  0  0  0  0  0  0  0  0  0  0
    1.7408   -0.1202   -1.2645 H   0  0  0  0  0  0  0  0  0  0  0  0
    1.8700   -0.6852   -3.2725 H   0  0  0  0  0  0  0  0  0  0  0  0
    2.9613   -1.7765   -5.1846 H   0  0  0  0  0  0  0  0  0  0  0  0
    2.0585   -5.6122   -3.5577 H   0  0  0  0  0  0  0  0  0  0  0  0
   -1.2907   -3.0797    3.3590 H   0  0  0  0  0  0  0  0  0  0  0  0
   -0.4750   -2.4487    1.9082 H   0  0  0  0  0  0  0  0  0  0  0  0
   -2.8122   -1.6313    2.0417 H   0  0  0  0  0  0  0  0  0  0  0  0
   -2.5825   -2.6807    0.6225 H   0  0  0  0  0  0  0  0  0  0  0  0
   -3.3982   -3.3117    2.0733 H   0  0  0  0  0  0  0  0  0  0  0  0
   -0.3185   -8.4646    2.8233 H   0  0  0  0  0  0  0  0  0  0  0  0
   -2.0817   -8.2217    2.8004 H   0  0  0  0  0  0  0  0  0  0  0  0
   -1.2361   -8.7455    1.3242 H   0  0  0  0  0  0  0  0  0  0  0  0
    1.3130   -6.5156   -2.1982 H   0  0  0  0  0  0  0  0  0  0  0  0
  1  2  1  0  0  0  0
  1 27  1  0  0  0  0
  1 28  1  0  0  0  0
  1 29  1  0  0  0  0
  2  3  1  0  0  0  0
  2 30  1  0  0  0  0
  2 31  1  0  0  0  0
  3  4  1  0  0  0  0
  3 32  1  0  0  0  0
  3 33  1  0  0  0  0
  4  5  1  0  0  0  0
  5 10  2  0  0  0  0
  5  6  1  0  0  0  0
  6  7  2  0  0  0  0
  6 34  1  0  0  0  0
  7  8  1  0  0  0  0
  7 35  1  0  0  0  0
  8  9  2  0  0  0  0
  8 24  1  0  0  0  0
  9 10  1  0  0  0  0
  9 36  1  0  0  0  0
 10 11  1  0  0  0  0
 11 22  1  0  0  0  0
 11 12  2  0  0  0  0
 12 13  1  0  0  0  0
 13 17  1  0  0  0  0
 13 14  2  0  0  0  0
 14 15  1  0  0  0  0
 14 21  1  0  0  0  0
 15 16  2  0  0  0  0
 15 20  1  0  0  0  0
 16 17  1  0  0  0  0
 17 18  1  0  0  0  0
 18 19  1  0  0  0  0
 18 37  1  0  0  0  0
 18 38  1  0  0  0  0
 19 39  1  0  0  0  0
 19 40  1  0  0  0  0
 19 41  1  0  0  0  0
 20 42  1  0  0  0  0
 20 43  1  0  0  0  0
 20 44  1  0  0  0  0
 21 22  1  0  0  0  0
 21 23  2  0  0  0  0
 22 45  1  0  0  0  0
 24 25  2  0  0  0  0
 24 26  1  0  0  0  0
M  CHG  2  24   1  26  -1
M  END
$$$$
CHEMBL298295
  -OEChem-07121202283D

 44 46  0     0  0  0  0  0  0999 V2000
   -0.0187    1.5258    0.0104 C   0  0  0  0  0  0  0  0  0  0  0  0
    0.0021   -0.0041    0.0020 C   0  0  0  0  0  0  0  0  0  0  0  0
   -1.4333   -0.5336    0.0129 C   0  0  0  0  0  0  0  0  0  0  0  0
   -1.4139   -1.9625    0.0050 O   0  0  0  0  0  0  0  0  0  0  0  0
   -2.6152   -2.5953    0.0131 C   0  0  0  0  0  0  0  0  0  0  0  0
   -3.7896   -1.8588    0.0225 C   0  0  0  0  0  0  0  0  0  0  0  0
   -5.0111   -2.5039    0.0302 C   0  0  0  0  0  0  0  0  0  0  0  0
   -5.0712   -3.8870    0.0291 C   0  0  0  0  0  0  0  0  0  0  0  0
   -3.9112   -4.6332    0.0203 C   0  0  0  0  0  0  0  0  0  0  0  0
   -2.6726   -3.9931    0.0061 C   0  0  0  0  0  0  0  0  0  0  0  0
   -1.4237   -4.7892   -0.0095 C   0  0  0  0  0  0  0  0  0  0  0  0
   -1.5093   -6.1100   -0.0212 N   0  0  0  0  0  0  0  0  0  0  0  0
   -0.4106   -6.8590   -0.0355 C   0  0  0  0  0  0  0  0  0  0  0  0
    0.8483   -6.2232   -0.0379 C   0  0  0  0  0  0  0  0  0  0  0  0
    1.8251   -7.2424   -0.0531 C   0  0  0  0  0  0  0  0  0  0  0  0
    1.2193   -8.3954   -0.0593 N   0  0  0  0  0  0  0  0  0  0  0  0
   -0.1676   -8.2010   -0.0488 N   0  0  0  0  0  0  0  0  0  0  0  0
   -1.1827   -9.2573   -0.0516 C   0  0  0  0  0  0  0  0  0  0  0  0
   -1.5452   -9.6124   -1.4950 C   0  0  0  0  0  0  0  0  0  0  0  0
    3.3173   -7.0317   -0.0612 C   0  0  0  0  0  0  0  0  0  0  0  0
    0.8885   -4.8166   -0.0251 C   0  0  0  0  0  0  0  0  0  0  0  0
   -0.2566   -4.1507   -0.0168 N   0  0  0  0  0  0  0  0  0  0  0  0
    2.0715   -4.1584   -0.0264 O   0  5  0  0  0  0  0  0  0  0  0  0
   -6.3856   -4.5677    0.0379 N   0  3  0  0  0  0  0  0  0  0  0  0
   -7.4039   -3.9160    0.0461 O   0  0  0  0  0  0  0  0  0  0  0  0
   -6.4409   -5.7755    0.0370 O   0  5  0  0  0  0  0  0  0  0  0  0
    1.0039    1.9031    0.0027 H   0  0  0  0  0  0  0  0  0  0  0  0
   -0.5459    1.8868   -0.8726 H   0  0  0  0  0  0  0  0  0  0  0  0
   -0.5289    1.8773    0.9072 H   0  0  0  0  0  0  0  0  0  0  0  0
    0.5123   -0.3556   -0.8948 H   0  0  0  0  0  0  0  0  0  0  0  0
    0.5293   -0.3651    0.8851 H   0  0  0  0  0  0  0  0  0  0  0  0
   -1.9435   -0.1821    0.9097 H   0  0  0  0  0  0  0  0  0  0  0  0
   -1.9605   -0.1726   -0.8702 H   0  0  0  0  0  0  0  0  0  0  0  0
   -3.7495   -0.7795    0.0241 H   0  0  0  0  0  0  0  0  0  0  0  0
   -5.9237   -1.9264    0.0375 H   0  0  0  0  0  0  0  0  0  0  0  0
   -3.9623   -5.7119    0.0198 H   0  0  0  0  0  0  0  0  0  0  0  0
   -0.7895  -10.1404    0.4520 H   0  0  0  0  0  0  0  0  0  0  0  0
   -2.0728   -8.9072    0.4710 H   0  0  0  0  0  0  0  0  0  0  0  0
   -2.3005  -10.3983   -1.4971 H   0  0  0  0  0  0  0  0  0  0  0  0
   -1.9385   -8.7293   -1.9986 H   0  0  0  0  0  0  0  0  0  0  0  0
   -0.6551   -9.9625   -2.0176 H   0  0  0  0  0  0  0  0  0  0  0  0
    3.6839   -6.9896    0.9644 H   0  0  0  0  0  0  0  0  0  0  0  0
    3.7980   -7.8577   -0.5853 H   0  0  0  0  0  0  0  0  0  0  0  0
    3.5493   -6.0953   -0.5686 H   0  0  0  0  0  0  0  0  0  0  0  0
  1  2  1  0  0  0  0
  1 27  1  0  0  0  0
  1 28  1  0  0  0  0
  1 29  1  0  0  0  0
  2  3  1  0  0  0  0
  2 30  1  0  0  0  0
  2 31  1  0  0  0  0
  3  4  1  0  0  0  0
  3 32  1  0  0  0  0
  3 33  1  0  0  0  0
  4  5  1  0  0  0  0
  5 10  2  0  0  0  0
  5  6  1  0  0  0  0
  6  7  2  0  0  0  0
  6 34  1  0  0  0  0
  7  8  1  0  0  0  0
  7 35  1  0  0  0  0
  8  9  2  0  0  0  0
  8 24  1  0  0  0  0
  9 10  1  0  0  0  0
  9 36  1  0  0  0  0
 10 11  1  0  0  0  0
 11 22  2  0  0  0  0
 11 12  1  0  0  0  0
 12 13  2  0  0  0  0
 13 17  1  0  0  0  0
 13 14  1  0  0  0  0
 14 15  1  0  0  0  0
 14 21  2  0  0  0  0
 15 16  2  0  0  0  0
 15 20  1  0  0  0  0
 16 17  1  0  0  0  0
 17 18  1  0  0  0  0
 18 19  1  0  0  0  0
 18 37  1  0  0  0  0
 18 38  1  0  0  0  0
 19 39  1  0  0  0  0
 19 40  1  0  0  0  0
 19 41  1  0  0  0  0
 20 42  1  0  0  0  0
 20 43  1  0  0  0  0
 20 44  1  0  0  0  0
 21 22  1  0  0  0  0
 21 23  1  0  0  0  0
 24 25  2  0  0  0  0
 24 26  1  0  0  0  0
M  CHG  3  23  -1  24   1  26  -1
M  END
$$$$
CHEMBL72423
  -OEChem-07121202283D

 74 78  0     0  0  0  0  0  0999 V2000
   -0.6525    3.1030    1.8024 C   0  0  0  0  0  0  0  0  0  0  0  0
   -0.1558    1.7839    1.5675 O   0  0  0  0  0  0  0  0  0  0  0  0
   -1.0493    0.8564    1.1305 C   0  0  0  0  0  0  0  0  0  0  0  0
   -2.3705    1.2116    0.9280 C   0  0  0  0  0  0  0  0  0  0  0  0
   -3.2876    0.2588    0.4792 C   0  0  0  0  0  0  0  0  0  0  0  0
   -2.8678   -1.0508    0.2361 C   0  0  0  0  0  0  0  0  0  0  0  0
   -1.5455   -1.4009    0.4402 C   0  0  0  0  0  0  0  0  0  0  0  0
   -0.6322   -0.4480    0.8820 C   0  0  0  0  0  0  0  0  0  0  0  0
    0.6686   -0.7934    1.0766 O   0  0  0  0  0  0  0  0  0  0  0  0
    1.0255   -1.2721    2.3748 C   0  0  0  0  0  0  0  0  0  0  0  0
   -1.1361   -2.6761    0.2040 O   0  0  0  0  0  0  0  0  0  0  0  0
   -2.1250   -3.6008   -0.2530 C   0  0  0  0  0  0  0  0  0  0  0  0
   -4.7000    0.6355    0.2625 C   0  0  0  0  0  0  0  0  0  0  0  0
   -5.7633    0.0491    1.0913 C   0  0  0  0  0  0  0  0  0  0  0  0
   -5.4801   -0.8718    2.0995 C   0  0  0  0  0  0  0  0  0  0  0  0
   -6.5072   -1.3957    2.8522 C   0  0  0  0  0  0  0  0  0  0  0  0
   -7.8259   -1.0143    2.6151 C   0  0  0  0  0  0  0  0  0  0  0  0
   -8.1264   -0.1016    1.6182 C   0  0  0  0  0  0  0  0  0  0  0  0
   -7.0996    0.4385    0.8484 C   0  0  0  0  0  0  0  0  0  0  0  0
   -7.3699    1.4114   -0.2202 C   0  0  0  0  0  0  0  0  0  0  0  0
   -8.5127    1.7636   -0.4490 O   0  0  0  0  0  0  0  0  0  0  0  0
   -6.3523    1.9126   -0.9450 N   0  0  0  0  0  0  0  0  0  0  0  0
   -5.0393    1.5486   -0.7188 C   0  0  0  0  0  0  0  0  0  0  0  0
   -3.9808    2.1400   -1.5425 C   0  0  0  0  0  0  0  0  0  0  0  0
   -2.8152    1.8786   -1.3144 O   0  0  0  0  0  0  0  0  0  0  0  0
   -4.2997    2.9744   -2.5537 O   0  0  0  0  0  0  0  0  0  0  0  0
   -3.2287    3.4238   -3.3862 C   0  0  0  0  0  0  0  0  0  0  0  0
   -6.6336    2.8380   -1.9577 C   0  0  0  0  0  0  0  0  0  0  0  0
   -6.7748    2.4085   -3.2712 C   0  0  0  0  0  0  0  0  0  0  0  0
   -7.0525    3.3204   -4.2694 C   0  0  0  0  0  0  0  0  0  0  0  0
   -7.1908    4.6678   -3.9604 C   0  0  0  0  0  0  0  0  0  0  0  0
   -7.0496    5.0972   -2.6467 C   0  0  0  0  0  0  0  0  0  0  0  0
   -6.7771    4.1845   -1.6479 C   0  0  0  0  0  0  0  0  0  0  0  0
   -7.4717    5.5916   -4.9715 N   0  0  0  0  0  0  0  0  0  0  0  0
   -8.8254   -1.5426    3.3679 O   0  0  0  0  0  0  0  0  0  0  0  0
   -8.4499   -2.4790    4.3799 C   0  0  0  0  0  0  0  0  0  0  0  0
   -9.7004   -2.9612    5.1179 C   0  0  0  0  0  0  0  0  0  0  0  0
   -9.3043   -3.9488    6.1851 C   0  0  0  0  0  0  0  0  0  0  0  0
   -9.6941   -3.7334    7.4937 C   0  0  0  0  0  0  0  0  0  0  0  0
   -9.3246   -4.6479    8.4678 C   0  0  0  0  0  0  0  0  0  0  0  0
   -8.5733   -5.7498    8.0876 C   0  0  0  0  0  0  0  0  0  0  0  0
   -8.2206   -5.8986    6.7599 C   0  0  0  0  0  0  0  0  0  0  0  0
   -8.5945   -5.0110    5.8590 N   0  0  0  0  0  0  0  0  0  0  0  0
    0.1610    3.7416    2.1466 H   0  0  0  0  0  0  0  0  0  0  0  0
   -1.0644    3.5063    0.8773 H   0  0  0  0  0  0  0  0  0  0  0  0
   -1.4330    3.0674    2.5624 H   0  0  0  0  0  0  0  0  0  0  0  0
   -2.6929    2.2249    1.1171 H   0  0  0  0  0  0  0  0  0  0  0  0
   -3.5751   -1.7895   -0.1106 H   0  0  0  0  0  0  0  0  0  0  0  0
    0.8126   -0.5027    3.1170 H   0  0  0  0  0  0  0  0  0  0  0  0
    0.4474   -2.1674    2.6036 H   0  0  0  0  0  0  0  0  0  0  0  0
    2.0888   -1.5113    2.3942 H   0  0  0  0  0  0  0  0  0  0  0  0
   -2.9186   -3.6808    0.4899 H   0  0  0  0  0  0  0  0  0  0  0  0
   -2.5440   -3.2484   -1.1956 H   0  0  0  0  0  0  0  0  0  0  0  0
   -1.6669   -4.5786   -0.4020 H   0  0  0  0  0  0  0  0  0  0  0  0
   -4.4603   -1.1728    2.2887 H   0  0  0  0  0  0  0  0  0  0  0  0
   -6.2886   -2.1090    3.6332 H   0  0  0  0  0  0  0  0  0  0  0  0
   -9.1508    0.1898    1.4390 H   0  0  0  0  0  0  0  0  0  0  0  0
   -2.6957    2.5625   -3.7891 H   0  0  0  0  0  0  0  0  0  0  0  0
   -3.6310    4.0184   -4.2064 H   0  0  0  0  0  0  0  0  0  0  0  0
   -2.5425    4.0332   -2.7981 H   0  0  0  0  0  0  0  0  0  0  0  0
   -6.6669    1.3611   -3.5115 H   0  0  0  0  0  0  0  0  0  0  0  0
   -7.1619    2.9866   -5.2906 H   0  0  0  0  0  0  0  0  0  0  0  0
   -7.1572    6.1446   -2.4065 H   0  0  0  0  0  0  0  0  0  0  0  0
   -6.6718    4.5177   -0.6260 H   0  0  0  0  0  0  0  0  0  0  0  0
   -7.5700    5.2918   -5.8887 H   0  0  0  0  0  0  0  0  0  0  0  0
   -7.5683    6.5324   -4.7557 H   0  0  0  0  0  0  0  0  0  0  0  0
   -7.9489   -3.3304    3.9192 H   0  0  0  0  0  0  0  0  0  0  0  0
   -7.7735   -1.9983    5.0867 H   0  0  0  0  0  0  0  0  0  0  0  0
  -10.2013   -2.1098    5.5786 H   0  0  0  0  0  0  0  0  0  0  0  0
  -10.3767   -3.4419    4.4111 H   0  0  0  0  0  0  0  0  0  0  0  0
  -10.2789   -2.8636    7.7540 H   0  0  0  0  0  0  0  0  0  0  0  0
   -9.6145   -4.5054    9.4983 H   0  0  0  0  0  0  0  0  0  0  0  0
   -8.2676   -6.4822    8.8201 H   0  0  0  0  0  0  0  0  0  0  0  0
   -7.6356   -6.7540    6.4557 H   0  0  0  0  0  0  0  0  0  0  0  0
  1  2  1  0  0  0  0
  1 44  1  0  0  0  0
  1 45  1  0  0  0  0
  1 46  1  0  0  0  0
  2  3  1  0  0  0  0
  3  8  2  0  0  0  0
  3  4  1  0  0  0  0
  4  5  2  0  0  0  0
  4 47  1  0  0  0  0
  5  6  1  0  0  0  0
  5 13  1  0  0  0  0
  6  7  2  0  0  0  0
  6 48  1  0  0  0  0
  7  8  1  0  0  0  0
  7 11  1  0  0  0  0
  8  9  1  0  0  0  0
  9 10  1  0  0  0  0
 10 49  1  0  0  0  0
 10 50  1  0  0  0  0
 10 51  1  0  0  0  0
 11 12  1  0  0  0  0
 12 52  1  0  0  0  0
 12 53  1  0  0  0  0
 12 54  1  0  0  0  0
 13 23  2  0  0  0  0
 13 14  1  0  0  0  0
 14 19  2  0  0  0  0
 14 15  1  0  0  0  0
 15 16  2  0  0  0  0
 15 55  1  0  0  0  0
 16 17  1  0  0  0  0
 16 56  1  0  0  0  0
 17 18  2  0  0  0  0
 17 35  1  0  0  0  0
 18 19  1  0  0  0  0
 18 57  1  0  0  0  0
 19 20  1  0  0  0  0
 20 21  2  0  0  0  0
 20 22  1  0  0  0  0
 22 23  1  0  0  0  0
 22 28  1  0  0  0  0
 23 24  1  0  0  0  0
 24 25  2  0  0  0  0
 24 26  1  0  0  0  0
 26 27  1  0  0  0  0
 27 58  1  0  0  0  0
 27 59  1  0  0  0  0
 27 60  1  0  0  0  0
 28 33  2  0  0  0  0
 28 29  1  0  0  0  0
 29 30  2  0  0  0  0
 29 61  1  0  0  0  0
 30 31  1  0  0  0  0
 30 62  1  0  0  0  0
 31 32  2  0  0  0  0
 31 34  1  0  0  0  0
 32 33  1  0  0  0  0
 32 63  1  0  0  0  0
 33 64  1  0  0  0  0
 34 65  1  0  0  0  0
 34 66  1  0  0  0  0
 35 36  1  0  0  0  0
 36 37  1  0  0  0  0
 36 67  1  0  0  0  0
 36 68  1  0  0  0  0
 37 38  1  0  0  0  0
 37 69  1  0  0  0  0
 37 70  1  0  0  0  0
 38 43  2  0  0  0  0
 38 39  1  0  0  0  0
 39 40  2  0  0  0  0
 39 71  1  0  0  0  0
 40 41  1  0  0  0  0
 40 72  1  0  0  0  0
 41 42  2  0  0  0  0
 41 73  1  0  0  0  0
 42 43  1  0  0  0  0
 42 74  1  0  0  0  0
M  END
$$$$
CHEMBL338500
  -OEChem-07121202283D

 63 69  0     1  0  0  0  0  0999 V2000
   -0.0173    1.4248    0.0099 C   0  0  0  0  0  0  0  0  0  0  0  0
    0.0021   -0.0041    0.0020 O   0  0  0  0  0  0  0  0  0  0  0  0
    0.6062   -0.6075   -1.0563 C   0  0  0  0  0  0  0  0  0  0  0  0
    1.1723    0.1620   -2.0613 C   0  0  0  0  0  0  0  0  0  0  0  0
    1.7863   -0.4467   -3.1371 C   0  0  0  0  0  0  0  0  0  0  0  0
    1.8388   -1.8371   -3.2150 C   0  0  0  0  0  0  0  0  0  0  0  0
    1.2705   -2.6115   -2.2054 C   0  0  0  0  0  0  0  0  0  0  0  0
    0.6603   -1.9970   -1.1264 C   0  0  0  0  0  0  0  0  0  0  0  0
    0.1089   -2.7500   -0.1372 O   0  0  0  0  0  0  0  0  0  0  0  0
    0.2012   -4.1694   -0.2742 C   0  0  0  0  0  0  0  0  0  0  0  0
    2.4983   -2.4921   -4.3715 C   0  0  0  0  0  0  0  0  0  0  0  0
    2.5552   -3.8847   -4.4693 C   0  0  0  0  0  0  0  0  0  0  0  0
    3.1509   -4.4305   -5.5149 N   0  0  0  0  0  0  0  0  0  0  0  0
    3.6891   -3.6755   -6.4617 C   0  0  0  0  0  0  0  0  0  0  0  0
    3.6557   -2.3520   -6.4041 N   0  0  0  0  0  0  0  0  0  0  0  0
    3.0730   -1.7318   -5.3932 C   0  0  0  0  0  0  0  0  0  0  0  0
    4.3039   -4.2864   -7.5406 N   0  0  0  0  0  0  0  0  0  0  0  0
    4.4335   -5.7276   -7.7790 C   0  0  0  0  0  0  0  0  0  0  0  0
    5.1762   -5.9068   -9.0799 C   0  0  0  0  0  0  0  0  0  0  0  0
    5.5575   -7.0914   -9.7576 C   0  0  0  0  0  0  0  0  0  0  0  0
    6.2849   -6.9570  -11.0302 C   0  0  0  0  0  0  0  0  0  0  0  0
    6.6953   -8.0726  -11.7595 C   0  0  0  0  0  0  0  0  0  0  0  0
    7.3681   -7.9010  -12.9370 C   0  0  0  0  0  0  0  0  0  0  0  0
    7.6453   -6.6261  -13.4112 C   0  0  0  0  0  0  0  0  0  0  0  0
    7.2491   -5.5113  -12.7058 C   0  0  0  0  0  0  0  0  0  0  0  0
    6.5621   -5.6629  -11.5043 C   0  0  0  0  0  0  0  0  0  0  0  0
    6.1512   -4.5728  -10.7754 N   0  0  0  0  0  0  0  0  0  0  0  0
    5.4780   -4.6988   -9.5980 C   0  0  0  0  0  0  0  0  0  0  0  0
    4.9499   -3.6220   -8.6766 C   0  0  2  0  0  0  0  0  0  0  0  0
    6.0906   -2.7672   -8.1874 C   0  0  0  0  0  0  0  0  0  0  0  0
    6.8984   -3.2174   -7.1597 C   0  0  0  0  0  0  0  0  0  0  0  0
    7.9462   -2.4371   -6.7078 C   0  0  0  0  0  0  0  0  0  0  0  0
    8.1890   -1.2009   -7.2842 C   0  0  0  0  0  0  0  0  0  0  0  0
    7.3752   -0.7474   -8.3194 C   0  0  0  0  0  0  0  0  0  0  0  0
    6.3304   -1.5373   -8.7710 C   0  0  0  0  0  0  0  0  0  0  0  0
    7.8148    0.4836   -8.7126 O   0  0  0  0  0  0  0  0  0  0  0  0
    8.6489    0.9554   -7.6379 C   0  0  0  0  0  0  0  0  0  0  0  0
    9.1385   -0.2540   -7.0289 O   0  0  0  0  0  0  0  0  0  0  0  0
    5.2911   -8.1903   -9.2995 O   0  0  0  0  0  0  0  0  0  0  0  0
    1.0053    1.8021    0.0021 H   0  0  0  0  0  0  0  0  0  0  0  0
   -0.5445    1.7859   -0.8732 H   0  0  0  0  0  0  0  0  0  0  0  0
   -0.5275    1.7763    0.9067 H   0  0  0  0  0  0  0  0  0  0  0  0
    1.1325    1.2396   -2.0023 H   0  0  0  0  0  0  0  0  0  0  0  0
    2.2260    0.1547   -3.9189 H   0  0  0  0  0  0  0  0  0  0  0  0
    1.3093   -3.6892   -2.2633 H   0  0  0  0  0  0  0  0  0  0  0  0
   -0.2993   -4.4792   -1.1916 H   0  0  0  0  0  0  0  0  0  0  0  0
    1.2501   -4.4630   -0.3158 H   0  0  0  0  0  0  0  0  0  0  0  0
   -0.2767   -4.6488    0.5801 H   0  0  0  0  0  0  0  0  0  0  0  0
    2.1189   -4.5061   -3.7012 H   0  0  0  0  0  0  0  0  0  0  0  0
    3.0450   -0.6529   -5.3552 H   0  0  0  0  0  0  0  0  0  0  0  0
    4.9946   -6.1883   -6.9660 H   0  0  0  0  0  0  0  0  0  0  0  0
    3.4449   -6.1811   -7.8518 H   0  0  0  0  0  0  0  0  0  0  0  0
    6.4830   -9.0670  -11.3956 H   0  0  0  0  0  0  0  0  0  0  0  0
    7.6869   -8.7641  -13.5027 H   0  0  0  0  0  0  0  0  0  0  0  0
    8.1778   -6.5070  -14.3433 H   0  0  0  0  0  0  0  0  0  0  0  0
    7.4697   -4.5238  -13.0835 H   0  0  0  0  0  0  0  0  0  0  0  0
    4.2239   -3.0041   -9.2050 H   0  0  0  0  0  0  0  0  0  0  0  0
    6.7102   -4.1805   -6.7087 H   0  0  0  0  0  0  0  0  0  0  0  0
    8.5757   -2.7912   -5.9048 H   0  0  0  0  0  0  0  0  0  0  0  0
    5.7004   -1.1901   -9.5767 H   0  0  0  0  0  0  0  0  0  0  0  0
    9.4753    1.5500   -8.0272 H   0  0  0  0  0  0  0  0  0  0  0  0
    8.0627    1.5337   -6.9238 H   0  0  0  0  0  0  0  0  0  0  0  0
    6.3471   -3.6839  -11.1106 H   0  0  0  0  0  0  0  0  0  0  0  0
  1  2  1  0  0  0  0
  1 40  1  0  0  0  0
  1 41  1  0  0  0  0
  1 42  1  0  0  0  0
  2  3  1  0  0  0  0
  3  8  2  0  0  0  0
  3  4  1  0  0  0  0
  4  5  2  0  0  0  0
  4 43  1  0  0  0  0
  5  6  1  0  0  0  0
  5 44  1  0  0  0  0
  6  7  2  0  0  0  0
  6 11  1  0  0  0  0
  7  8  1  0  0  0  0
  7 45  1  0  0  0  0
  8  9  1  0  0  0  0
  9 10  1  0  0  0  0
 10 46  1  0  0  0  0
 10 47  1  0  0  0  0
 10 48  1  0  0  0  0
 11 16  2  0  0  0  0
 11 12  1  0  0  0  0
 12 13  2  0  0  0  0
 12 49  1  0  0  0  0
 13 14  1  0  0  0  0
 14 15  2  0  0  0  0
 14 17  1  0  0  0  0
 15 16  1  0  0  0  0
 16 50  1  0  0  0  0
 17 29  1  0  0  0  0
 17 18  1  0  0  0  0
 18 19  1  0  0  0  0
 18 51  1  0  0  0  0
 18 52  1  0  0  0  0
 19 28  2  0  0  0  0
 19 20  1  0  0  0  0
 20 21  1  0  0  0  0
 20 39  2  0  0  0  0
 21 26  2  0  0  0  0
 21 22  1  0  0  0  0
 22 23  2  0  0  0  0
 22 53  1  0  0  0  0
 23 24  1  0  0  0  0
 23 54  1  0  0  0  0
 24 25  2  0  0  0  0
 24 55  1  0  0  0  0
 25 26  1  0  0  0  0
 25 56  1  0  0  0  0
 26 27  1  0  0  0  0
 27 28  1  0  0  0  0
 27 63  1  0  0  0  0
 28 29  1  0  0  0  0
 29 30  1  0  0  0  0
 29 57  1  0  0  0  0
 30 35  2  0  0  0  0
 30 31  1  0  0  0  0
 31 32  2  0  0  0  0
 31 58  1  0  0  0  0
 32 33  1  0  0  0  0
 32 59  1  0  0  0  0
 33 38  1  0  0  0  0
 33 34  2  0  0  0  0
 34 35  1  0  0  0  0
 34 36  1  0  0  0  0
 35 60  1  0  0  0  0
 36 37  1  0  0  0  0
 37 38  1  0  0  0  0
 37 61  1  0  0  0  0
 37 62  1  0  0  0  0
M  END
$$$$
CHEMBL338500
  -OEChem-07121202283D

 63 69  0     1  0  0  0  0  0999 V2000
   -0.0173    1.4248    0.0099 C   0  0  0  0  0  0  0  0  0  0  0  0
    0.0021   -0.0041    0.0020 O   0  0  0  0  0  0  0  0  0  0  0  0
    0.6062   -0.6075   -1.0563 C   0  0  0  0  0  0  0  0  0  0  0  0
    1.1723    0.1620   -2.0613 C   0  0  0  0  0  0  0  0  0  0  0  0
    1.7863   -0.4467   -3.1371 C   0  0  0  0  0  0  0  0  0  0  0  0
    1.8388   -1.8371   -3.2150 C   0  0  0  0  0  0  0  0  0  0  0  0
    1.2705   -2.6115   -2.2054 C   0  0  0  0  0  0  0  0  0  0  0  0
    0.6603   -1.9970   -1.1264 C   0  0  0  0  0  0  0  0  0  0  0  0
    0.1089   -2.7500   -0.1372 O   0  0  0  0  0  0  0  0  0  0  0  0
    0.2012   -4.1694   -0.2742 C   0  0  0  0  0  0  0  0  0  0  0  0
    2.4983   -2.4921   -4.3715 C   0  0  0  0  0  0  0  0  0  0  0  0
    2.5552   -3.8847   -4.4693 C   0  0  0  0  0  0  0  0  0  0  0  0
    3.1509   -4.4305   -5.5149 N   0  0  0  0  0  0  0  0  0  0  0  0
    3.6891   -3.6755   -6.4617 C   0  0  0  0  0  0  0  0  0  0  0  0
    3.6557   -2.3520   -6.4041 N   0  0  0  0  0  0  0  0  0  0  0  0
    3.0730   -1.7318   -5.3932 C   0  0  0  0  0  0  0  0  0  0  0  0
    4.3039   -4.2864   -7.5406 N   0  0  0  0  0  0  0  0  0  0  0  0
    4.4335   -5.7276   -7.7790 C   0  0  0  0  0  0  0  0  0  0  0  0
    5.1762   -5.9068   -9.0799 C   0  0  0  0  0  0  0  0  0  0  0  0
    5.5575   -7.0914   -9.7576 C   0  0  0  0  0  0  0  0  0  0  0  0
    6.2849   -6.9570  -11.0302 C   0  0  0  0  0  0  0  0  0  0  0  0
    6.6953   -8.0726  -11.7595 C   0  0  0  0  0  0  0  0  0  0  0  0
    7.3681   -7.9010  -12.9370 C   0  0  0  0  0  0  0  0  0  0  0  0
    7.6453   -6.6261  -13.4112 C   0  0  0  0  0  0  0  0  0  0  0  0
    7.2491   -5.5113  -12.7058 C   0  0  0  0  0  0  0  0  0  0  0  0
    6.5621   -5.6629  -11.5043 C   0  0  0  0  0  0  0  0  0  0  0  0
    6.1512   -4.5728  -10.7754 N   0  0  0  0  0  0  0  0  0  0  0  0
    5.4780   -4.6988   -9.5980 C   0  0  0  0  0  0  0  0  0  0  0  0
    4.9499   -3.6220   -8.6766 C   0  0  1  0  0  0  0  0  0  0  0  0
    3.9462   -2.7677   -9.4072 C   0  0  0  0  0  0  0  0  0  0  0  0
    2.6472   -3.2134   -9.5663 C   0  0  0  0  0  0  0  0  0  0  0  0
    1.7227   -2.4331  -10.2353 C   0  0  0  0  0  0  0  0  0  0  0  0
    2.0966   -1.2018  -10.7487 C   0  0  0  0  0  0  0  0  0  0  0  0
    3.4052   -0.7530  -10.5885 C   0  0  0  0  0  0  0  0  0  0  0  0
    4.3249   -1.5378   -9.9118 C   0  0  0  0  0  0  0  0  0  0  0  0
    3.5207    0.4736  -11.1762 O   0  0  0  0  0  0  0  0  0  0  0  0
    2.3825    0.5898  -12.0504 C   0  0  0  0  0  0  0  0  0  0  0  0
    1.3923   -0.2564  -11.4367 O   0  0  0  0  0  0  0  0  0  0  0  0
    5.2911   -8.1903   -9.2995 O   0  0  0  0  0  0  0  0  0  0  0  0
    1.0053    1.8021    0.0021 H   0  0  0  0  0  0  0  0  0  0  0  0
   -0.5445    1.7859   -0.8732 H   0  0  0  0  0  0  0  0  0  0  0  0
   -0.5275    1.7763    0.9067 H   0  0  0  0  0  0  0  0  0  0  0  0
    1.1325    1.2396   -2.0023 H   0  0  0  0  0  0  0  0  0  0  0  0
    2.2260    0.1547   -3.9189 H   0  0  0  0  0  0  0  0  0  0  0  0
    1.3093   -3.6892   -2.2633 H   0  0  0  0  0  0  0  0  0  0  0  0
   -0.2993   -4.4792   -1.1916 H   0  0  0  0  0  0  0  0  0  0  0  0
    1.2501   -4.4630   -0.3158 H   0  0  0  0  0  0  0  0  0  0  0  0
   -0.2767   -4.6488    0.5801 H   0  0  0  0  0  0  0  0  0  0  0  0
    2.1189   -4.5061   -3.7012 H   0  0  0  0  0  0  0  0  0  0  0  0
    3.0450   -0.6529   -5.3552 H   0  0  0  0  0  0  0  0  0  0  0  0
    4.9946   -6.1883   -6.9660 H   0  0  0  0  0  0  0  0  0  0  0  0
    3.4449   -6.1811   -7.8518 H   0  0  0  0  0  0  0  0  0  0  0  0
    6.4830   -9.0670  -11.3956 H   0  0  0  0  0  0  0  0  0  0  0  0
    7.6869   -8.7641  -13.5027 H   0  0  0  0  0  0  0  0  0  0  0  0
    8.1778   -6.5070  -14.3433 H   0  0  0  0  0  0  0  0  0  0  0  0
    7.4697   -4.5238  -13.0835 H   0  0  0  0  0  0  0  0  0  0  0  0
    5.7749   -3.0038   -8.3227 H   0  0  0  0  0  0  0  0  0  0  0  0
    2.3541   -4.1732   -9.1674 H   0  0  0  0  0  0  0  0  0  0  0  0
    0.7086   -2.7837  -10.3582 H   0  0  0  0  0  0  0  0  0  0  0  0
    5.3392   -1.1902   -9.7822 H   0  0  0  0  0  0  0  0  0  0  0  0
    2.0334    1.6216  -12.0895 H   0  0  0  0  0  0  0  0  0  0  0  0
    2.6284    0.2294  -13.0493 H   0  0  0  0  0  0  0  0  0  0  0  0
    6.3471   -3.6839  -11.1106 H   0  0  0  0  0  0  0  0  0  0  0  0
  1  2  1  0  0  0  0
  1 40  1  0  0  0  0
  1 41  1  0  0  0  0
  1 42  1  0  0  0  0
  2  3  1  0  0  0  0
  3  8  2  0  0  0  0
  3  4  1  0  0  0  0
  4  5  2  0  0  0  0
  4 43  1  0  0  0  0
  5  6  1  0  0  0  0
  5 44  1  0  0  0  0
  6  7  2  0  0  0  0
  6 11  1  0  0  0  0
  7  8  1  0  0  0  0
  7 45  1  0  0  0  0
  8  9  1  0  0  0  0
  9 10  1  0  0  0  0
 10 46  1  0  0  0  0
 10 47  1  0  0  0  0
 10 48  1  0  0  0  0
 11 16  2  0  0  0  0
 11 12  1  0  0  0  0
 12 13  2  0  0  0  0
 12 49  1  0  0  0  0
 13 14  1  0  0  0  0
 14 15  2  0  0  0  0
 14 17  1  0  0  0  0
 15 16  1  0  0  0  0
 16 50  1  0  0  0  0
 17 29  1  0  0  0  0
 17 18  1  0  0  0  0
 18 19  1  0  0  0  0
 18 51  1  0  0  0  0
 18 52  1  0  0  0  0
 19 28  2  0  0  0  0
 19 20  1  0  0  0  0
 20 21  1  0  0  0  0
 20 39  2  0  0  0  0
 21 26  2  0  0  0  0
 21 22  1  0  0  0  0
 22 23  2  0  0  0  0
 22 53  1  0  0  0  0
 23 24  1  0  0  0  0
 23 54  1  0  0  0  0
 24 25  2  0  0  0  0
 24 55  1  0  0  0  0
 25 26  1  0  0  0  0
 25 56  1  0  0  0  0
 26 27  1  0  0  0  0
 27 28  1  0  0  0  0
 27 63  1  0  0  0  0
 28 29  1  0  0  0  0
 29 30  1  0  0  0  0
 29 57  1  0  0  0  0
 30 35  2  0  0  0  0
 30 31  1  0  0  0  0
 31 32  2  0  0  0  0
 31 58  1  0  0  0  0
 32 33  1  0  0  0  0
 32 59  1  0  0  0  0
 33 38  1  0  0  0  0
 33 34  2  0  0  0  0
 34 35  1  0  0  0  0
 34 36  1  0  0  0  0
 35 60  1  0  0  0  0
 36 37  1  0  0  0  0
 37 38  1  0  0  0  0
 37 61  1  0  0  0  0
 37 62  1  0  0  0  0
M  END
$$$$
CHEMBL296294
  -OEChem-07121202283D

 59 63  0     0  0  0  0  0  0999 V2000
   -0.0187    1.5258    0.0104 C   0  0  0  0  0  0  0  0  0  0  0  0
    0.0021   -0.0041    0.0020 C   0  0  0  0  0  0  0  0  0  0  0  0
   -1.4333   -0.5336    0.0129 C   0  0  0  0  0  0  0  0  0  0  0  0
   -1.4139   -1.9625    0.0050 O   0  0  0  0  0  0  0  0  0  0  0  0
   -2.6144   -2.5949    0.0131 C   0  0  0  0  0  0  0  0  0  0  0  0
   -3.7883   -1.8557    0.0225 C   0  0  0  0  0  0  0  0  0  0  0  0
   -5.0104   -2.4942    0.0313 C   0  0  0  0  0  0  0  0  0  0  0  0
   -5.0756   -3.8885    0.0306 C   0  0  0  0  0  0  0  0  0  0  0  0
   -3.9066   -4.6397    0.0208 C   0  0  0  0  0  0  0  0  0  0  0  0
   -2.6694   -3.9958    0.0061 C   0  0  0  0  0  0  0  0  0  0  0  0
   -1.4233   -4.7860   -0.0106 C   0  0  0  0  0  0  0  0  0  0  0  0
   -0.2759   -4.1501   -0.0132 N   0  0  0  0  0  0  0  0  0  0  0  0
    0.8928   -4.8030   -0.0276 C   0  0  0  0  0  0  0  0  0  0  0  0
    0.8964   -6.2082   -0.0403 C   0  0  0  0  0  0  0  0  0  0  0  0
    2.2416   -6.6218   -0.0538 C   0  0  0  0  0  0  0  0  0  0  0  0
    2.9983   -5.5592   -0.0497 N   0  0  0  0  0  0  0  0  0  0  0  0
    2.1951   -4.4121   -0.0336 N   0  0  0  0  0  0  0  0  0  0  0  0
    2.6757   -3.0282   -0.0242 C   0  0  0  0  0  0  0  0  0  0  0  0
    2.8537   -2.5599    1.4215 C   0  0  0  0  0  0  0  0  0  0  0  0
    2.7253   -8.0490   -0.0697 C   0  0  0  0  0  0  0  0  0  0  0  0
   -0.3896   -6.9049   -0.0376 C   0  0  0  0  0  0  0  0  0  0  0  0
   -1.5127   -6.1499   -0.0171 N   0  0  0  0  0  0  0  0  0  0  0  0
   -0.4477   -8.1218   -0.0482 O   0  0  0  0  0  0  0  0  0  0  0  0
   -6.3944   -4.5691    0.0410 C   0  0  0  0  0  0  0  0  0  0  0  0
   -7.5842   -3.9582    0.0461 N   0  0  0  0  0  0  0  0  0  0  0  0
   -8.5449   -4.8579    0.0551 C   0  0  0  0  0  0  0  0  0  0  0  0
   -7.9708   -6.0832    0.0560 N   0  0  0  0  0  0  0  0  0  0  0  0
   -8.4277   -6.9388    0.0618 H   0  0  0  0  0  0  0  0  0  0  0  0
   -6.5827   -5.8713    0.0411 N   0  0  0  0  0  0  0  0  0  0  0  0
   -9.9982   -4.5783    0.0634 C   0  0  0  0  0  0  0  0  0  0  0  0
  -10.9137   -5.6307    0.0790 C   0  0  0  0  0  0  0  0  0  0  0  0
  -12.2674   -5.3635    0.0871 C   0  0  0  0  0  0  0  0  0  0  0  0
  -12.7172   -4.0553    0.0798 C   0  0  0  0  0  0  0  0  0  0  0  0
  -11.8142   -3.0073    0.0644 C   0  0  0  0  0  0  0  0  0  0  0  0
  -10.4580   -3.2613    0.0615 C   0  0  0  0  0  0  0  0  0  0  0  0
    1.0039    1.9031    0.0027 H   0  0  0  0  0  0  0  0  0  0  0  0
   -0.5459    1.8868   -0.8726 H   0  0  0  0  0  0  0  0  0  0  0  0
   -0.5289    1.8773    0.9072 H   0  0  0  0  0  0  0  0  0  0  0  0
    0.5123   -0.3556   -0.8948 H   0  0  0  0  0  0  0  0  0  0  0  0
    0.5293   -0.3651    0.8851 H   0  0  0  0  0  0  0  0  0  0  0  0
   -1.9435   -0.1821    0.9097 H   0  0  0  0  0  0  0  0  0  0  0  0
   -1.9605   -0.1726   -0.8702 H   0  0  0  0  0  0  0  0  0  0  0  0
   -3.7449   -0.7766    0.0234 H   0  0  0  0  0  0  0  0  0  0  0  0
   -5.9207   -1.9132    0.0389 H   0  0  0  0  0  0  0  0  0  0  0  0
   -3.9559   -5.7186    0.0206 H   0  0  0  0  0  0  0  0  0  0  0  0
    3.6318   -2.9721   -0.5446 H   0  0  0  0  0  0  0  0  0  0  0  0
    1.9504   -2.3883   -0.5267 H   0  0  0  0  0  0  0  0  0  0  0  0
    1.8976   -2.6160    1.9419 H   0  0  0  0  0  0  0  0  0  0  0  0
    3.5790   -3.1999    1.9240 H   0  0  0  0  0  0  0  0  0  0  0  0
    3.2113   -1.5303    1.4285 H   0  0  0  0  0  0  0  0  0  0  0  0
    2.8344   -8.3841   -1.1012 H   0  0  0  0  0  0  0  0  0  0  0  0
    3.6886   -8.1117    0.4365 H   0  0  0  0  0  0  0  0  0  0  0  0
    2.0029   -8.6832    0.4440 H   0  0  0  0  0  0  0  0  0  0  0  0
  -10.5637   -6.6524    0.0843 H   0  0  0  0  0  0  0  0  0  0  0  0
  -12.9772   -6.1774    0.0988 H   0  0  0  0  0  0  0  0  0  0  0  0
  -13.7777   -3.8512    0.0859 H   0  0  0  0  0  0  0  0  0  0  0  0
  -12.1716   -1.9881    0.0584 H   0  0  0  0  0  0  0  0  0  0  0  0
   -9.7540   -2.4423    0.0536 H   0  0  0  0  0  0  0  0  0  0  0  0
   -2.3832   -6.5777   -0.0107 H   0  0  0  0  0  0  0  0  0  0  0  0
  1  2  1  0  0  0  0
  1 36  1  0  0  0  0
  1 37  1  0  0  0  0
  1 38  1  0  0  0  0
  2  3  1  0  0  0  0
  2 39  1  0  0  0  0
  2 40  1  0  0  0  0
  3  4  1  0  0  0  0
  3 41  1  0  0  0  0
  3 42  1  0  0  0  0
  4  5  1  0  0  0  0
  5 10  2  0  0  0  0
  5  6  1  0  0  0  0
  6  7  2  0  0  0  0
  6 43  1  0  0  0  0
  7  8  1  0  0  0  0
  7 44  1  0  0  0  0
  8  9  2  0  0  0  0
  8 24  1  0  0  0  0
  9 10  1  0  0  0  0
  9 45  1  0  0  0  0
 10 11  1  0  0  0  0
 11 22  1  0  0  0  0
 11 12  2  0  0  0  0
 12 13  1  0  0  0  0
 13 17  1  0  0  0  0
 13 14  2  0  0  0  0
 14 15  1  0  0  0  0
 14 21  1  0  0  0  0
 15 16  2  0  0  0  0
 15 20  1  0  0  0  0
 16 17  1  0  0  0  0
 17 18  1  0  0  0  0
 18 19  1  0  0  0  0
 18 46  1  0  0  0  0
 18 47  1  0  0  0  0
 19 48  1  0  0  0  0
 19 49  1  0  0  0  0
 19 50  1  0  0  0  0
 20 51  1  0  0  0  0
 20 52  1  0  0  0  0
 20 53  1  0  0  0  0
 21 22  1  0  0  0  0
 21 23  2  0  0  0  0
 22 59  1  0  0  0  0
 24 29  2  0  0  0  0
 24 25  1  0  0  0  0
 25 26  2  0  0  0  0
 26 27  1  0  0  0  0
 26 30  1  0  0  0  0
 27 28  1  0  0  0  0
 27 29  1  0  0  0  0
 30 35  2  0  0  0  0
 30 31  1  0  0  0  0
 31 32  2  0  0  0  0
 31 54  1  0  0  0  0
 32 33  1  0  0  0  0
 32 55  1  0  0  0  0
 33 34  2  0  0  0  0
 33 56  1  0  0  0  0
 34 35  1  0  0  0  0
 34 57  1  0  0  0  0
 35 58  1  0  0  0  0
M  END
$$$$
CHEMBL296294
  -OEChem-07121202283D

 59 63  0     0  0  0  0  0  0999 V2000
   -0.0187    1.5258    0.0104 C   0  0  0  0  0  0  0  0  0  0  0  0
    0.0021   -0.0041    0.0020 C   0  0  0  0  0  0  0  0  0  0  0  0
    0.7182   -0.4975   -1.2568 C   0  0  0  0  0  0  0  0  0  0  0  0
    0.7376   -1.9263   -1.2646 O   0  0  0  0  0  0  0  0  0  0  0  0
    1.3402   -2.5283   -2.3204 C   0  0  0  0  0  0  0  0  0  0  0  0
    1.9072   -1.7593   -3.3270 C   0  0  0  0  0  0  0  0  0  0  0  0
    2.5205   -2.3658   -4.4016 C   0  0  0  0  0  0  0  0  0  0  0  0
    2.5757   -3.7598   -4.4862 C   0  0  0  0  0  0  0  0  0  0  0  0
    2.0104   -4.5409   -3.4827 C   0  0  0  0  0  0  0  0  0  0  0  0
    1.3954   -3.9278   -2.3922 C   0  0  0  0  0  0  0  0  0  0  0  0
    0.7988   -4.7484   -1.3206 C   0  0  0  0  0  0  0  0  0  0  0  0
    0.2176   -4.1411   -0.3136 N   0  0  0  0  0  0  0  0  0  0  0  0
   -0.3443   -4.8224    0.6925 C   0  0  0  0  0  0  0  0  0  0  0  0
   -0.3136   -6.2273    0.6744 C   0  0  0  0  0  0  0  0  0  0  0  0
   -0.9675   -6.6739    1.8379 C   0  0  0  0  0  0  0  0  0  0  0  0
   -1.3653   -5.6303    2.5119 N   0  0  0  0  0  0  0  0  0  0  0  0
   -0.9957   -4.4638    1.8309 N   0  0  0  0  0  0  0  0  0  0  0  0
   -1.2645   -3.0922    2.2699 C   0  0  0  0  0  0  0  0  0  0  0  0
   -2.6123   -2.6324    1.7106 C   0  0  0  0  0  0  0  0  0  0  0  0
   -1.1735   -8.1124    2.2368 C   0  0  0  0  0  0  0  0  0  0  0  0
    0.3375   -6.8921   -0.4540 C   0  0  0  0  0  0  0  0  0  0  0  0
    0.8700   -6.1097   -1.4215 N   0  0  0  0  0  0  0  0  0  0  0  0
    0.3943   -8.1071   -0.5229 O   0  0  0  0  0  0  0  0  0  0  0  0
    3.2346   -4.4051   -5.6429 C   0  0  0  0  0  0  0  0  0  0  0  0
    3.3536   -5.7009   -5.8419 N   0  0  0  0  0  0  0  0  0  0  0  0
    4.0051   -5.9230   -6.9890 C   0  0  0  0  0  0  0  0  0  0  0  0
    4.3107   -4.7671   -7.5376 N   0  0  0  0  0  0  0  0  0  0  0  0
    3.8799   -2.8078   -6.8168 H   0  0  0  0  0  0  0  0  0  0  0  0
    3.8160   -3.7667   -6.6854 N   0  0  0  0  0  0  0  0  0  0  0  0
    4.3308   -7.2573   -7.5512 C   0  0  0  0  0  0  0  0  0  0  0  0
    3.9468   -8.4135   -6.8752 C   0  0  0  0  0  0  0  0  0  0  0  0
    4.2518   -9.6519   -7.4029 C   0  0  0  0  0  0  0  0  0  0  0  0
    4.9374   -9.7463   -8.6005 C   0  0  0  0  0  0  0  0  0  0  0  0
    5.3210   -8.6017   -9.2758 C   0  0  0  0  0  0  0  0  0  0  0  0
    5.0165   -7.3583   -8.7598 C   0  0  0  0  0  0  0  0  0  0  0  0
    1.0039    1.9031    0.0027 H   0  0  0  0  0  0  0  0  0  0  0  0
   -0.5459    1.8868   -0.8726 H   0  0  0  0  0  0  0  0  0  0  0  0
   -0.5289    1.8773    0.9072 H   0  0  0  0  0  0  0  0  0  0  0  0
    0.5293   -0.3651    0.8851 H   0  0  0  0  0  0  0  0  0  0  0  0
   -1.0205   -0.3814    0.0098 H   0  0  0  0  0  0  0  0  0  0  0  0
    0.1910   -0.1364   -2.1398 H   0  0  0  0  0  0  0  0  0  0  0  0
    1.7408   -0.1202   -1.2645 H   0  0  0  0  0  0  0  0  0  0  0  0
    1.8674   -0.6816   -3.2679 H   0  0  0  0  0  0  0  0  0  0  0  0
    2.9599   -1.7617   -5.1817 H   0  0  0  0  0  0  0  0  0  0  0  0
    2.0518   -5.6183   -3.5465 H   0  0  0  0  0  0  0  0  0  0  0  0
   -1.2924   -3.0582    3.3590 H   0  0  0  0  0  0  0  0  0  0  0  0
   -0.4762   -2.4332    1.9059 H   0  0  0  0  0  0  0  0  0  0  0  0
   -2.8122   -1.6119    2.0372 H   0  0  0  0  0  0  0  0  0  0  0  0
   -2.5844   -2.6664    0.6215 H   0  0  0  0  0  0  0  0  0  0  0  0
   -3.4006   -3.2915    2.0746 H   0  0  0  0  0  0  0  0  0  0  0  0
   -0.3295   -8.4466    2.8401 H   0  0  0  0  0  0  0  0  0  0  0  0
   -2.0922   -8.2007    2.8167 H   0  0  0  0  0  0  0  0  0  0  0  0
   -1.2478   -8.7305    1.3420 H   0  0  0  0  0  0  0  0  0  0  0  0
    3.4117   -8.3409   -5.9399 H   0  0  0  0  0  0  0  0  0  0  0  0
    3.9549  -10.5488   -6.8796 H   0  0  0  0  0  0  0  0  0  0  0  0
    5.1744  -10.7173   -9.0097 H   0  0  0  0  0  0  0  0  0  0  0  0
    5.8561   -8.6812  -10.2105 H   0  0  0  0  0  0  0  0  0  0  0  0
    5.3126   -6.4653   -9.2901 H   0  0  0  0  0  0  0  0  0  0  0  0
    1.3067   -6.5159   -2.1865 H   0  0  0  0  0  0  0  0  0  0  0  0
  1  2  1  0  0  0  0
  1 36  1  0  0  0  0
  1 37  1  0  0  0  0
  1 38  1  0  0  0  0
  2  3  1  0  0  0  0
  2 39  1  0  0  0  0
  2 40  1  0  0  0  0
  3  4  1  0  0  0  0
  3 41  1  0  0  0  0
  3 42  1  0  0  0  0
  4  5  1  0  0  0  0
  5 10  2  0  0  0  0
  5  6  1  0  0  0  0
  6  7  2  0  0  0  0
  6 43  1  0  0  0  0
  7  8  1  0  0  0  0
  7 44  1  0  0  0  0
  8  9  2  0  0  0  0
  8 24  1  0  0  0  0
  9 10  1  0  0  0  0
  9 45  1  0  0  0  0
 10 11  1  0  0  0  0
 11 22  1  0  0  0  0
 11 12  2  0  0  0  0
 12 13  1  0  0  0  0
 13 17  1  0  0  0  0
 13 14  2  0  0  0  0
 14 15  1  0  0  0  0
 14 21  1  0  0  0  0
 15 16  2  0  0  0  0
 15 20  1  0  0  0  0
 16 17  1  0  0  0  0
 17 18  1  0  0  0  0
 18 19  1  0  0  0  0
 18 46  1  0  0  0  0
 18 47  1  0  0  0  0
 19 48  1  0  0  0  0
 19 49  1  0  0  0  0
 19 50  1  0  0  0  0
 20 51  1  0  0  0  0
 20 52  1  0  0  0  0
 20 53  1  0  0  0  0
 21 22  1  0  0  0  0
 21 23  2  0  0  0  0
 22 59  1  0  0  0  0
 24 25  2  0  0  0  0
 24 29  1  0  0  0  0
 25 26  1  0  0  0  0
 26 30  1  0  0  0  0
 26 27  2  0  0  0  0
 27 29  1  0  0  0  0
 28 29  1  0  0  0  0
 30 35  2  0  0  0  0
 30 31  1  0  0  0  0
 31 32  2  0  0  0  0
 31 54  1  0  0  0  0
 32 33  1  0  0  0  0
 32 55  1  0  0  0  0
 33 34  2  0  0  0  0
 33 56  1  0  0  0  0
 34 35  1  0  0  0  0
 34 57  1  0  0  0  0
 35 58  1  0  0  0  0
M  END
$$$$
CHEMBL108844
  -OEChem-07121202283D

 59 62  0     0  0  0  0  0  0999 V2000
   -0.0187    1.5258    0.0104 C   0  0  0  0  0  0  0  0  0  0  0  0
    0.0021   -0.0041    0.0020 C   0  0  0  0  0  0  0  0  0  0  0  0
   -1.3723   -0.5112    0.0124 N   0  0  0  0  0  0  0  0  0  0  0  0
   -2.0123   -0.7518    1.2176 C   0  0  0  0  0  0  0  0  0  0  0  0
   -3.3171   -1.2326    1.1991 C   0  0  0  0  0  0  0  0  0  0  0  0
   -3.9476   -1.4596   -0.0371 C   0  0  0  0  0  0  0  0  0  0  0  0
   -5.0907   -1.8803   -0.0772 O   0  0  0  0  0  0  0  0  0  0  0  0
   -3.2740   -1.2064   -1.1782 N   0  0  0  0  0  0  0  0  0  0  0  0
   -2.0145   -0.7377   -1.1491 C   0  0  0  0  0  0  0  0  0  0  0  0
   -1.4395   -0.5167   -2.1975 O   0  0  0  0  0  0  0  0  0  0  0  0
   -3.9267   -1.4414   -2.4685 C   0  0  0  0  0  0  0  0  0  0  0  0
   -4.6527   -0.1697   -2.9119 C   0  0  0  0  0  0  0  0  0  0  0  0
   -3.6987   -1.3789    2.5260 N   0  0  0  0  0  0  0  0  0  0  0  0
   -2.6384   -0.9914    3.2832 C   0  0  0  0  0  0  0  0  0  0  0  0
   -1.6490   -0.6234    2.4948 N   0  0  0  0  0  0  0  0  0  0  0  0
   -2.6039   -0.9842    4.6587 N   0  0  0  0  0  0  0  0  0  0  0  0
   -1.3954   -0.5419    5.3588 C   0  0  0  0  0  0  0  0  0  0  0  0
   -0.4345   -1.7322    5.5578 C   0  0  0  0  0  0  0  0  0  0  0  0
    0.1885   -1.4879    6.9547 C   0  0  0  0  0  0  0  0  0  0  0  0
   -1.0045   -0.9269    7.7677 C   0  0  0  0  0  0  0  0  0  0  0  0
   -1.7579   -0.0299    6.7639 C   0  0  0  0  0  0  0  0  0  0  0  0
   -4.9938   -1.8579    3.0155 C   0  0  0  0  0  0  0  0  0  0  0  0
   -4.9470   -3.3554    3.1774 C   0  0  0  0  0  0  0  0  0  0  0  0
   -5.2974   -4.1750    2.1204 C   0  0  0  0  0  0  0  0  0  0  0  0
   -5.2562   -5.5486    2.2654 C   0  0  0  0  0  0  0  0  0  0  0  0
   -4.8624   -6.1061    3.4724 C   0  0  0  0  0  0  0  0  0  0  0  0
   -4.5102   -5.2816    4.5333 C   0  0  0  0  0  0  0  0  0  0  0  0
   -4.5484   -3.9072    4.3808 C   0  0  0  0  0  0  0  0  0  0  0  0
   -4.1259   -5.8211    5.7108 F   0  0  0  0  0  0  0  0  0  0  0  0
   -4.8215   -7.4573    3.6173 O   0  0  0  0  0  0  0  0  0  0  0  0
   -5.1977   -8.2429    2.4844 C   0  0  0  0  0  0  0  0  0  0  0  0
    1.0039    1.9031    0.0027 H   0  0  0  0  0  0  0  0  0  0  0  0
   -0.5459    1.8868   -0.8726 H   0  0  0  0  0  0  0  0  0  0  0  0
   -0.5289    1.8773    0.9072 H   0  0  0  0  0  0  0  0  0  0  0  0
    0.5123   -0.3556   -0.8948 H   0  0  0  0  0  0  0  0  0  0  0  0
    0.5293   -0.3651    0.8851 H   0  0  0  0  0  0  0  0  0  0  0  0
   -3.1759   -1.7092   -3.2120 H   0  0  0  0  0  0  0  0  0  0  0  0
   -4.6458   -2.2545   -2.3692 H   0  0  0  0  0  0  0  0  0  0  0  0
   -5.4035    0.0980   -2.1684 H   0  0  0  0  0  0  0  0  0  0  0  0
   -3.9336    0.6433   -3.0112 H   0  0  0  0  0  0  0  0  0  0  0  0
   -5.1383   -0.3446   -3.8719 H   0  0  0  0  0  0  0  0  0  0  0  0
   -3.3798   -1.2720    5.1648 H   0  0  0  0  0  0  0  0  0  0  0  0
   -0.9021    0.2462    4.7900 H   0  0  0  0  0  0  0  0  0  0  0  0
   -0.9847   -2.6730    5.5447 H   0  0  0  0  0  0  0  0  0  0  0  0
    0.3388   -1.7307    4.7897 H   0  0  0  0  0  0  0  0  0  0  0  0
    0.5453   -2.4226    7.3873 H   0  0  0  0  0  0  0  0  0  0  0  0
    0.9941   -0.7560    6.8958 H   0  0  0  0  0  0  0  0  0  0  0  0
   -1.6468   -1.7377    8.1115 H   0  0  0  0  0  0  0  0  0  0  0  0
   -0.6472   -0.3377    8.6123 H   0  0  0  0  0  0  0  0  0  0  0  0
   -1.4396    1.0064    6.8773 H   0  0  0  0  0  0  0  0  0  0  0  0
   -2.8329   -0.1105    6.9249 H   0  0  0  0  0  0  0  0  0  0  0  0
   -5.2123   -1.3950    3.9778 H   0  0  0  0  0  0  0  0  0  0  0  0
   -5.7727   -1.5939    2.3001 H   0  0  0  0  0  0  0  0  0  0  0  0
   -5.6042   -3.7410    1.1802 H   0  0  0  0  0  0  0  0  0  0  0  0
   -5.5308   -6.1875    1.4392 H   0  0  0  0  0  0  0  0  0  0  0  0
   -4.2706   -3.2649    5.2034 H   0  0  0  0  0  0  0  0  0  0  0  0
   -5.1208   -9.3011    2.7344 H   0  0  0  0  0  0  0  0  0  0  0  0
   -6.2250   -8.0093    2.2052 H   0  0  0  0  0  0  0  0  0  0  0  0
   -4.5340   -8.0177    1.6495 H   0  0  0  0  0  0  0  0  0  0  0  0
  1  2  1  0  0  0  0
  1 32  1  0  0  0  0
  1 33  1  0  0  0  0
  1 34  1  0  0  0  0
  2  3  1  0  0  0  0
  2 35  1  0  0  0  0
  2 36  1  0  0  0  0
  3  9  1  0  0  0  0
  3  4  1  0  0  0  0
  4 15  1  0  0  0  0
  4  5  2  0  0  0  0
  5  6  1  0  0  0  0
  5 13  1  0  0  0  0
  6  7  2  0  0  0  0
  6  8  1  0  0  0  0
  8  9  1  0  0  0  0
  8 11  1  0  0  0  0
  9 10  2  0  0  0  0
 11 12  1  0  0  0  0
 11 37  1  0  0  0  0
 11 38  1  0  0  0  0
 12 39  1  0  0  0  0
 12 40  1  0  0  0  0
 12 41  1  0  0  0  0
 13 14  1  0  0  0  0
 13 22  1  0  0  0  0
 14 15  2  0  0  0  0
 14 16  1  0  0  0  0
 16 17  1  0  0  0  0
 16 42  1  0  0  0  0
 17 21  1  0  0  0  0
 17 18  1  0  0  0  0
 17 43  1  0  0  0  0
 18 19  1  0  0  0  0
 18 44  1  0  0  0  0
 18 45  1  0  0  0  0
 19 20  1  0  0  0  0
 19 46  1  0  0  0  0
 19 47  1  0  0  0  0
 20 21  1  0  0  0  0
 20 48  1  0  0  0  0
 20 49  1  0  0  0  0
 21 50  1  0  0  0  0
 21 51  1  0  0  0  0
 22 23  1  0  0  0  0
 22 52  1  0  0  0  0
 22 53  1  0  0  0  0
 23 28  2  0  0  0  0
 23 24  1  0  0  0  0
 24 25  2  0  0  0  0
 24 54  1  0  0  0  0
 25 26  1  0  0  0  0
 25 55  1  0  0  0  0
 26 27  2  0  0  0  0
 26 30  1  0  0  0  0
 27 28  1  0  0  0  0
 27 29  1  0  0  0  0
 28 56  1  0  0  0  0
 30 31  1  0  0  0  0
 31 57  1  0  0  0  0
 31 58  1  0  0  0  0
 31 59  1  0  0  0  0
M  END
$$$$
CHEMBL295329
  -OEChem-07121202283D

 58 62  0     0  0  0  0  0  0999 V2000
   -0.0187    1.5258    0.0104 C   0  0  0  0  0  0  0  0  0  0  0  0
    0.0021   -0.0041    0.0020 C   0  0  0  0  0  0  0  0  0  0  0  0
    0.7421   -0.5109    1.2415 C   0  0  0  0  0  0  0  0  0  0  0  0
    0.7614   -1.9398    1.2337 O   0  0  0  0  0  0  0  0  0  0  0  0
    1.3844   -2.5533    2.2718 C   0  0  0  0  0  0  0  0  0  0  0  0
    1.9605   -1.7959    3.2810 C   0  0  0  0  0  0  0  0  0  0  0  0
    2.5949   -2.4149    4.3374 C   0  0  0  0  0  0  0  0  0  0  0  0
    2.6621   -3.8078    4.3992 C   0  0  0  0  0  0  0  0  0  0  0  0
    2.0881   -4.5772    3.3943 C   0  0  0  0  0  0  0  0  0  0  0  0
    1.4409   -3.9528    2.3277 C   0  0  0  0  0  0  0  0  0  0  0  0
    0.8235   -4.7623    1.2596 C   0  0  0  0  0  0  0  0  0  0  0  0
    0.2319   -4.1445    0.2650 N   0  0  0  0  0  0  0  0  0  0  0  0
   -0.3481   -4.8155   -0.7376 C   0  0  0  0  0  0  0  0  0  0  0  0
   -0.3257   -6.2206   -0.7296 C   0  0  0  0  0  0  0  0  0  0  0  0
   -0.9993   -6.6551   -1.8865 C   0  0  0  0  0  0  0  0  0  0  0  0
   -1.4005   -5.6046   -2.5475 N   0  0  0  0  0  0  0  0  0  0  0  0
   -1.0139   -4.4450   -1.8639 N   0  0  0  0  0  0  0  0  0  0  0  0
   -1.2816   -3.0688   -2.2890 C   0  0  0  0  0  0  0  0  0  0  0  0
   -0.1308   -2.5732   -3.1669 C   0  0  0  0  0  0  0  0  0  0  0  0
   -1.2191   -8.0896   -2.2926 C   0  0  0  0  0  0  0  0  0  0  0  0
    0.3367   -6.8971    0.3851 C   0  0  0  0  0  0  0  0  0  0  0  0
    0.8968   -6.1246    1.3449 N   0  0  0  0  0  0  0  0  0  0  0  0
    0.3871   -8.1129    0.4449 O   0  0  0  0  0  0  0  0  0  0  0  0
    3.3471   -4.4673    5.5384 C   0  0  0  0  0  0  0  0  0  0  0  0
    3.8214   -3.7213    6.5858 C   0  0  0  0  0  0  0  0  0  0  0  0
    4.5203   -5.0046    7.6165 S   0  0  0  0  0  0  0  0  0  0  0  0
    4.1130   -6.3862    6.5578 C   0  0  0  0  0  0  0  0  0  0  0  0
    3.5003   -5.7777    5.5547 N   0  0  0  0  0  0  0  0  0  0  0  0
    4.3835   -7.8267    6.7536 C   0  0  0  0  0  0  0  0  0  0  0  0
    5.0428   -8.2772    7.9033 C   0  0  0  0  0  0  0  0  0  0  0  0
    5.2712   -9.6351    8.0387 C   0  0  0  0  0  0  0  0  0  0  0  0
    4.8449  -10.4960    7.0433 C   0  0  0  0  0  0  0  0  0  0  0  0
    4.2261  -10.0429    5.9701 N   0  0  0  0  0  0  0  0  0  0  0  0
    3.9806   -8.7603    5.7984 C   0  0  0  0  0  0  0  0  0  0  0  0
    1.0039    1.9031    0.0027 H   0  0  0  0  0  0  0  0  0  0  0  0
   -0.5459    1.8868   -0.8726 H   0  0  0  0  0  0  0  0  0  0  0  0
   -0.5289    1.8773    0.9072 H   0  0  0  0  0  0  0  0  0  0  0  0
   -1.0205   -0.3814    0.0098 H   0  0  0  0  0  0  0  0  0  0  0  0
    0.5123   -0.3556   -0.8948 H   0  0  0  0  0  0  0  0  0  0  0  0
    1.7647   -0.1336    1.2338 H   0  0  0  0  0  0  0  0  0  0  0  0
    0.2319   -0.1594    2.1383 H   0  0  0  0  0  0  0  0  0  0  0  0
    1.9125   -0.7178    3.2391 H   0  0  0  0  0  0  0  0  0  0  0  0
    3.0419   -1.8196    5.1199 H   0  0  0  0  0  0  0  0  0  0  0  0
    2.1394   -5.6550    3.4409 H   0  0  0  0  0  0  0  0  0  0  0  0
   -2.2113   -3.0384   -2.8573 H   0  0  0  0  0  0  0  0  0  0  0  0
   -1.3711   -2.4284   -1.4115 H   0  0  0  0  0  0  0  0  0  0  0  0
    0.7989   -2.6036   -2.5986 H   0  0  0  0  0  0  0  0  0  0  0  0
   -0.0413   -3.2136   -4.0444 H   0  0  0  0  0  0  0  0  0  0  0  0
   -0.3300   -1.5493   -3.4832 H   0  0  0  0  0  0  0  0  0  0  0  0
   -2.1582   -8.4470   -1.8702 H   0  0  0  0  0  0  0  0  0  0  0  0
   -1.2606   -8.1572   -3.3797 H   0  0  0  0  0  0  0  0  0  0  0  0
   -0.3974   -8.7023   -1.9216 H   0  0  0  0  0  0  0  0  0  0  0  0
    3.7838   -2.6537    6.7445 H   0  0  0  0  0  0  0  0  0  0  0  0
    5.3653   -7.5826    8.6649 H   0  0  0  0  0  0  0  0  0  0  0  0
    5.7774  -10.0188    8.9122 H   0  0  0  0  0  0  0  0  0  0  0  0
    5.0218  -11.5564    7.1464 H   0  0  0  0  0  0  0  0  0  0  0  0
    3.4669   -8.4280    4.9084 H   0  0  0  0  0  0  0  0  0  0  0  0
    1.3478   -6.5386    2.0973 H   0  0  0  0  0  0  0  0  0  0  0  0
  1  2  1  0  0  0  0
  1 35  1  0  0  0  0
  1 36  1  0  0  0  0
  1 37  1  0  0  0  0
  2  3  1  0  0  0  0
  2 38  1  0  0  0  0
  2 39  1  0  0  0  0
  3  4  1  0  0  0  0
  3 40  1  0  0  0  0
  3 41  1  0  0  0  0
  4  5  1  0  0  0  0
  5 10  2  0  0  0  0
  5  6  1  0  0  0  0
  6  7  2  0  0  0  0
  6 42  1  0  0  0  0
  7  8  1  0  0  0  0
  7 43  1  0  0  0  0
  8  9  2  0  0  0  0
  8 24  1  0  0  0  0
  9 10  1  0  0  0  0
  9 44  1  0  0  0  0
 10 11  1  0  0  0  0
 11 22  1  0  0  0  0
 11 12  2  0  0  0  0
 12 13  1  0  0  0  0
 13 17  1  0  0  0  0
 13 14  2  0  0  0  0
 14 15  1  0  0  0  0
 14 21  1  0  0  0  0
 15 16  2  0  0  0  0
 15 20  1  0  0  0  0
 16 17  1  0  0  0  0
 17 18  1  0  0  0  0
 18 19  1  0  0  0  0
 18 45  1  0  0  0  0
 18 46  1  0  0  0  0
 19 47  1  0  0  0  0
 19 48  1  0  0  0  0
 19 49  1  0  0  0  0
 20 50  1  0  0  0  0
 20 51  1  0  0  0  0
 20 52  1  0  0  0  0
 21 22  1  0  0  0  0
 21 23  2  0  0  0  0
 22 58  1  0  0  0  0
 24 28  1  0  0  0  0
 24 25  2  0  0  0  0
 25 26  1  0  0  0  0
 25 53  1  0  0  0  0
 26 27  1  0  0  0  0
 27 28  2  0  0  0  0
 27 29  1  0  0  0  0
 29 34  2  0  0  0  0
 29 30  1  0  0  0  0
 30 31  2  0  0  0  0
 30 54  1  0  0  0  0
 31 32  1  0  0  0  0
 31 55  1  0  0  0  0
 32 33  2  0  0  0  0
 32 56  1  0  0  0  0
 33 34  1  0  0  0  0
 34 57  1  0  0  0  0
M  END
$$$$
CHEMBL178541
  -OEChem-07121202283D

 56 62  0     1  0  0  0  0  0999 V2000
   -0.0165    1.3628    0.0095 C   0  0  0  0  0  0  0  0  0  0  0  0
    1.1698    2.0838    0.0021 C   0  0  0  0  0  0  0  0  0  0  0  0
    2.3862    1.4376   -0.0135 C   0  0  0  0  0  0  0  0  0  0  0  0
    2.4284    0.0458   -0.0214 C   0  0  0  0  0  0  0  0  0  0  0  0
    1.2231   -0.6777   -0.0133 C   0  0  0  0  0  0  0  0  0  0  0  0
    0.0021   -0.0041    0.0020 C   0  0  0  0  0  0  0  0  0  0  0  0
    1.2934   -2.1480   -0.0219 C   0  0  0  0  0  0  0  0  0  0  0  0
    2.5744   -2.7535   -0.0380 C   0  0  0  0  0  0  0  0  0  0  0  0
    3.6874   -1.9921   -0.0449 C   0  0  0  0  0  0  0  0  0  0  0  0
    3.6240   -0.6315   -0.0374 N   0  0  0  0  0  0  0  0  0  0  0  0
    4.9010   -2.8944   -0.0614 C   0  0  2  0  0  0  0  0  0  0  0  0
    4.4244   -4.2808   -0.0638 N   0  0  0  0  0  0  0  0  0  0  0  0
    2.9595   -4.2121   -0.0492 C   0  0  0  0  0  0  0  0  0  0  0  0
    5.2014   -5.4254   -0.0782 C   0  0  0  0  0  0  0  0  0  0  0  0
    6.5215   -5.3077   -0.0860 N   0  0  0  0  0  0  0  0  0  0  0  0
    7.2974   -6.3771   -0.0997 C   0  0  0  0  0  0  0  0  0  0  0  0
    6.7071   -7.6434   -0.1059 C   0  0  0  0  0  0  0  0  0  0  0  0
    5.3123   -7.7246   -0.0973 C   0  0  0  0  0  0  0  0  0  0  0  0
    4.6048   -6.6089   -0.0783 N   0  0  0  0  0  0  0  0  0  0  0  0
    7.5404   -8.8710   -0.1218 C   0  0  0  0  0  0  0  0  0  0  0  0
    6.9432  -10.1346   -0.1338 C   0  0  0  0  0  0  0  0  0  0  0  0
    7.7644  -11.2487   -0.1489 C   0  0  0  0  0  0  0  0  0  0  0  0
    9.1369  -11.0775   -0.1515 C   0  0  0  0  0  0  0  0  0  0  0  0
    9.6717   -9.8719   -0.1400 N   0  0  0  0  0  0  0  0  0  0  0  0
    8.9307   -8.7827   -0.1308 C   0  0  0  0  0  0  0  0  0  0  0  0
    5.7400   -2.6447    1.1653 C   0  0  0  0  0  0  0  0  0  0  0  0
    5.3882   -3.2158    2.3746 C   0  0  0  0  0  0  0  0  0  0  0  0
    6.1550   -2.9939    3.4994 C   0  0  0  0  0  0  0  0  0  0  0  0
    7.2913   -2.1917    3.4267 C   0  0  0  0  0  0  0  0  0  0  0  0
    7.6303   -1.6177    2.2084 C   0  0  0  0  0  0  0  0  0  0  0  0
    6.8682   -1.8480    1.0843 C   0  0  0  0  0  0  0  0  0  0  0  0
    8.8804   -0.7910    2.4391 C   0  0  0  0  0  0  0  0  0  0  0  0
    8.9149   -0.6868    3.9822 C   0  0  0  0  0  0  0  0  0  0  0  0
    8.1857   -1.8547    4.3962 O   0  0  0  0  0  0  0  0  0  0  0  0
    0.2786   -2.8253   -0.0151 O   0  0  0  0  0  0  0  0  0  0  0  0
   -0.9613    1.8858    0.0259 H   0  0  0  0  0  0  0  0  0  0  0  0
    1.1386    3.1633    0.0082 H   0  0  0  0  0  0  0  0  0  0  0  0
    3.3032    2.0080   -0.0199 H   0  0  0  0  0  0  0  0  0  0  0  0
   -0.9242   -0.5595    0.0083 H   0  0  0  0  0  0  0  0  0  0  0  0
    5.4905   -2.7047   -0.9584 H   0  0  0  0  0  0  0  0  0  0  0  0
    2.5749   -4.7034    0.8446 H   0  0  0  0  0  0  0  0  0  0  0  0
    2.5575   -4.6942   -0.9403 H   0  0  0  0  0  0  0  0  0  0  0  0
    8.3724   -6.2738   -0.1064 H   0  0  0  0  0  0  0  0  0  0  0  0
    4.8195   -8.6857   -0.1018 H   0  0  0  0  0  0  0  0  0  0  0  0
    5.8683  -10.2391   -0.1311 H   0  0  0  0  0  0  0  0  0  0  0  0
    7.3381  -12.2409   -0.1581 H   0  0  0  0  0  0  0  0  0  0  0  0
    9.7808  -11.9445   -0.1629 H   0  0  0  0  0  0  0  0  0  0  0  0
    9.4053   -7.8125   -0.1262 H   0  0  0  0  0  0  0  0  0  0  0  0
    4.5081   -3.8385    2.4387 H   0  0  0  0  0  0  0  0  0  0  0  0
    5.8735   -3.4442    4.4399 H   0  0  0  0  0  0  0  0  0  0  0  0
    7.1492   -1.4038    0.1408 H   0  0  0  0  0  0  0  0  0  0  0  0
    9.7638   -1.3076    2.0638 H   0  0  0  0  0  0  0  0  0  0  0  0
    8.7849    0.1949    1.9842 H   0  0  0  0  0  0  0  0  0  0  0  0
    9.9407   -0.7219    4.3489 H   0  0  0  0  0  0  0  0  0  0  0  0
    8.4140    0.2207    4.3193 H   0  0  0  0  0  0  0  0  0  0  0  0
    4.4504   -0.1236   -0.0431 H   0  0  0  0  0  0  0  0  0  0  0  0
  1  6  2  0  0  0  0
  1  2  1  0  0  0  0
  1 36  1  0  0  0  0
  2  3  2  0  0  0  0
  2 37  1  0  0  0  0
  3  4  1  0  0  0  0
  3 38  1  0  0  0  0
  4 10  1  0  0  0  0
  4  5  2  0  0  0  0
  5  6  1  0  0  0  0
  5  7  1  0  0  0  0
  6 39  1  0  0  0  0
  7  8  1  0  0  0  0
  7 35  2  0  0  0  0
  8 13  1  0  0  0  0
  8  9  2  0  0  0  0
  9 10  1  0  0  0  0
  9 11  1  0  0  0  0
 10 56  1  0  0  0  0
 11 12  1  0  0  0  0
 11 26  1  0  0  0  0
 11 40  1  0  0  0  0
 12 13  1  0  0  0  0
 12 14  1  0  0  0  0
 13 41  1  0  0  0  0
 13 42  1  0  0  0  0
 14 19  2  0  0  0  0
 14 15  1  0  0  0  0
 15 16  2  0  0  0  0
 16 17  1  0  0  0  0
 16 43  1  0  0  0  0
 17 18  2  0  0  0  0
 17 20  1  0  0  0  0
 18 19  1  0  0  0  0
 18 44  1  0  0  0  0
 20 25  2  0  0  0  0
 20 21  1  0  0  0  0
 21 22  2  0  0  0  0
 21 45  1  0  0  0  0
 22 23  1  0  0  0  0
 22 46  1  0  0  0  0
 23 24  2  0  0  0  0
 23 47  1  0  0  0  0
 24 25  1  0  0  0  0
 25 48  1  0  0  0  0
 26 31  2  0  0  0  0
 26 27  1  0  0  0  0
 27 28  2  0  0  0  0
 27 49  1  0  0  0  0
 28 29  1  0  0  0  0
 28 50  1  0  0  0  0
 29 34  1  0  0  0  0
 29 30  2  0  0  0  0
 30 31  1  0  0  0  0
 30 32  1  0  0  0  0
 31 51  1  0  0  0  0
 32 33  1  0  0  0  0
 32 52  1  0  0  0  0
 32 53  1  0  0  0  0
 33 34  1  0  0  0  0
 33 54  1  0  0  0  0
 33 55  1  0  0  0  0
M  END
$$$$
CHEMBL178541
  -OEChem-07121202283D

 56 62  0     1  0  0  0  0  0999 V2000
   -0.0165    1.3628    0.0095 C   0  0  0  0  0  0  0  0  0  0  0  0
    1.1698    2.0838    0.0021 C   0  0  0  0  0  0  0  0  0  0  0  0
    2.3862    1.4376   -0.0135 C   0  0  0  0  0  0  0  0  0  0  0  0
    2.4284    0.0458   -0.0214 C   0  0  0  0  0  0  0  0  0  0  0  0
    1.2231   -0.6777   -0.0133 C   0  0  0  0  0  0  0  0  0  0  0  0
    0.0021   -0.0041    0.0020 C   0  0  0  0  0  0  0  0  0  0  0  0
    1.2934   -2.1480   -0.0219 C   0  0  0  0  0  0  0  0  0  0  0  0
    2.5744   -2.7535   -0.0380 C   0  0  0  0  0  0  0  0  0  0  0  0
    3.6874   -1.9921   -0.0449 C   0  0  0  0  0  0  0  0  0  0  0  0
    3.6240   -0.6315   -0.0374 N   0  0  0  0  0  0  0  0  0  0  0  0
    4.9010   -2.8944   -0.0614 C   0  0  1  0  0  0  0  0  0  0  0  0
    4.4244   -4.2808   -0.0638 N   0  0  0  0  0  0  0  0  0  0  0  0
    2.9595   -4.2121   -0.0492 C   0  0  0  0  0  0  0  0  0  0  0  0
    5.2014   -5.4254   -0.0782 C   0  0  0  0  0  0  0  0  0  0  0  0
    6.5215   -5.3077   -0.0860 N   0  0  0  0  0  0  0  0  0  0  0  0
    7.2974   -6.3771   -0.0997 C   0  0  0  0  0  0  0  0  0  0  0  0
    6.7071   -7.6434   -0.1059 C   0  0  0  0  0  0  0  0  0  0  0  0
    5.3123   -7.7246   -0.0973 C   0  0  0  0  0  0  0  0  0  0  0  0
    4.6048   -6.6089   -0.0783 N   0  0  0  0  0  0  0  0  0  0  0  0
    7.5404   -8.8710   -0.1218 C   0  0  0  0  0  0  0  0  0  0  0  0
    6.9432  -10.1346   -0.1338 C   0  0  0  0  0  0  0  0  0  0  0  0
    7.7644  -11.2487   -0.1489 C   0  0  0  0  0  0  0  0  0  0  0  0
    9.1369  -11.0775   -0.1515 C   0  0  0  0  0  0  0  0  0  0  0  0
    9.6717   -9.8719   -0.1400 N   0  0  0  0  0  0  0  0  0  0  0  0
    8.9307   -8.7827   -0.1308 C   0  0  0  0  0  0  0  0  0  0  0  0
    5.7160   -2.6321   -1.3016 C   0  0  0  0  0  0  0  0  0  0  0  0
    5.3341   -3.1814   -2.5118 C   0  0  0  0  0  0  0  0  0  0  0  0
    6.0741   -2.9410   -3.6508 C   0  0  0  0  0  0  0  0  0  0  0  0
    7.2135   -2.1422   -3.5914 C   0  0  0  0  0  0  0  0  0  0  0  0
    7.5911   -1.6022   -2.3688 C   0  0  0  0  0  0  0  0  0  0  0  0
    6.8456   -1.8361   -1.2344 C   0  0  0  0  0  0  0  0  0  0  0  0
    8.8629   -0.8111   -2.6062 C   0  0  0  0  0  0  0  0  0  0  0  0
    9.3082   -1.3300   -3.9939 C   0  0  0  0  0  0  0  0  0  0  0  0
    8.0716   -1.7702   -4.5806 O   0  0  0  0  0  0  0  0  0  0  0  0
    0.2786   -2.8253   -0.0151 O   0  0  0  0  0  0  0  0  0  0  0  0
   -0.9613    1.8858    0.0259 H   0  0  0  0  0  0  0  0  0  0  0  0
    1.1386    3.1633    0.0082 H   0  0  0  0  0  0  0  0  0  0  0  0
    3.3032    2.0080   -0.0199 H   0  0  0  0  0  0  0  0  0  0  0  0
   -0.9242   -0.5595    0.0083 H   0  0  0  0  0  0  0  0  0  0  0  0
    5.5079   -2.7138    0.8259 H   0  0  0  0  0  0  0  0  0  0  0  0
    2.5749   -4.7034    0.8446 H   0  0  0  0  0  0  0  0  0  0  0  0
    2.5575   -4.6942   -0.9403 H   0  0  0  0  0  0  0  0  0  0  0  0
    8.3724   -6.2738   -0.1064 H   0  0  0  0  0  0  0  0  0  0  0  0
    4.8195   -8.6857   -0.1018 H   0  0  0  0  0  0  0  0  0  0  0  0
    5.8683  -10.2391   -0.1311 H   0  0  0  0  0  0  0  0  0  0  0  0
    7.3381  -12.2409   -0.1581 H   0  0  0  0  0  0  0  0  0  0  0  0
    9.7808  -11.9445   -0.1629 H   0  0  0  0  0  0  0  0  0  0  0  0
    9.4053   -7.8125   -0.1262 H   0  0  0  0  0  0  0  0  0  0  0  0
    4.4520   -3.8022   -2.5654 H   0  0  0  0  0  0  0  0  0  0  0  0
    5.7686   -3.3734   -4.5921 H   0  0  0  0  0  0  0  0  0  0  0  0
    7.1449   -1.4014   -0.2922 H   0  0  0  0  0  0  0  0  0  0  0  0
    8.6559    0.2586   -2.6383 H   0  0  0  0  0  0  0  0  0  0  0  0
    9.6108   -1.0390   -1.8468 H   0  0  0  0  0  0  0  0  0  0  0  0
    9.7505   -0.5265   -4.5829 H   0  0  0  0  0  0  0  0  0  0  0  0
   10.0042   -2.1623   -3.8899 H   0  0  0  0  0  0  0  0  0  0  0  0
    4.4504   -0.1236   -0.0431 H   0  0  0  0  0  0  0  0  0  0  0  0
  1  6  2  0  0  0  0
  1  2  1  0  0  0  0
  1 36  1  0  0  0  0
  2  3  2  0  0  0  0
  2 37  1  0  0  0  0
  3  4  1  0  0  0  0
  3 38  1  0  0  0  0
  4 10  1  0  0  0  0
  4  5  2  0  0  0  0
  5  6  1  0  0  0  0
  5  7  1  0  0  0  0
  6 39  1  0  0  0  0
  7  8  1  0  0  0  0
  7 35  2  0  0  0  0
  8 13  1  0  0  0  0
  8  9  2  0  0  0  0
  9 10  1  0  0  0  0
  9 11  1  0  0  0  0
 10 56  1  0  0  0  0
 11 12  1  0  0  0  0
 11 26  1  0  0  0  0
 11 40  1  0  0  0  0
 12 13  1  0  0  0  0
 12 14  1  0  0  0  0
 13 41  1  0  0  0  0
 13 42  1  0  0  0  0
 14 19  2  0  0  0  0
 14 15  1  0  0  0  0
 15 16  2  0  0  0  0
 16 17  1  0  0  0  0
 16 43  1  0  0  0  0
 17 18  2  0  0  0  0
 17 20  1  0  0  0  0
 18 19  1  0  0  0  0
 18 44  1  0  0  0  0
 20 25  2  0  0  0  0
 20 21  1  0  0  0  0
 21 22  2  0  0  0  0
 21 45  1  0  0  0  0
 22 23  1  0  0  0  0
 22 46  1  0  0  0  0
 23 24  2  0  0  0  0
 23 47  1  0  0  0  0
 24 25  1  0  0  0  0
 25 48  1  0  0  0  0
 26 31  2  0  0  0  0
 26 27  1  0  0  0  0
 27 28  2  0  0  0  0
 27 49  1  0  0  0  0
 28 29  1  0  0  0  0
 28 50  1  0  0  0  0
 29 34  1  0  0  0  0
 29 30  2  0  0  0  0
 30 31  1  0  0  0  0
 30 32  1  0  0  0  0
 31 51  1  0  0  0  0
 32 33  1  0  0  0  0
 32 52  1  0  0  0  0
 32 53  1  0  0  0  0
 33 34  1  0  0  0  0
 33 54  1  0  0  0  0
 33 55  1  0  0  0  0
M  END
$$$$
CHEMBL366118
  -OEChem-07121202283D

 55 57  0     0  0  0  0  0  0999 V2000
   -0.0317    1.5381    0.0059 C   0  0  0  0  0  0  0  0  0  0  0  0
   -0.0027    0.0084    0.0029 C   0  0  0  0  0  0  0  0  0  0  0  0
   -1.4137   -0.5208    0.0130 C   0  0  0  0  0  0  0  0  0  0  0  0
   -2.0052   -0.8523    1.1973 C   0  0  0  0  0  0  0  0  0  0  0  0
   -3.3170   -1.3449    1.2130 C   0  0  0  0  0  0  0  0  0  0  0  0
   -4.0191   -1.4947    0.0032 C   0  0  0  0  0  0  0  0  0  0  0  0
   -3.4061   -1.1538   -1.1896 C   0  0  0  0  0  0  0  0  0  0  0  0
   -2.1079   -0.6630   -1.1855 C   0  0  0  0  0  0  0  0  0  0  0  0
   -1.5106   -0.3245   -2.3557 O   0  0  0  0  0  0  0  0  0  0  0  0
   -2.2783   -0.4947   -3.5489 C   0  0  0  0  0  0  0  0  0  0  0  0
   -1.4572   -0.0705   -4.7393 C   0  0  0  0  0  0  0  0  0  0  0  0
   -0.1635    0.3888   -4.5485 C   0  0  0  0  0  0  0  0  0  0  0  0
    0.5882    0.7775   -5.6461 C   0  0  0  0  0  0  0  0  0  0  0  0
    0.0139    0.6918   -6.9048 C   0  0  0  0  0  0  0  0  0  0  0  0
   -1.2918    0.2207   -7.0221 C   0  0  0  0  0  0  0  0  0  0  0  0
   -1.9760   -0.1464   -5.9452 N   0  0  0  0  0  0  0  0  0  0  0  0
   -1.9199    0.1231   -8.3598 C   0  0  0  0  0  0  0  0  0  0  0  0
   -1.2965    0.4534   -9.3494 O   0  0  0  0  0  0  0  0  0  0  0  0
   -3.1828   -0.3320   -8.4797 N   0  0  0  0  0  0  0  0  0  0  0  0
   -3.7718   -0.4235   -9.7341 C   0  0  0  0  0  0  0  0  0  0  0  0
   -4.9833   -0.8351  -10.0404 N   0  0  0  0  0  0  0  0  0  0  0  0
   -5.3980   -0.8627  -11.2933 C   0  0  0  0  0  0  0  0  0  0  0  0
   -4.5216   -0.4496  -12.2418 C   0  0  0  0  0  0  0  0  0  0  0  0
   -3.1116   -0.0279  -11.2308 S   0  0  0  0  0  0  0  0  0  0  0  0
   -6.7837   -1.3330  -11.6535 C   0  0  0  0  0  0  0  0  0  0  0  0
   -7.0071   -2.7138  -11.0929 C   0  0  0  0  0  0  0  0  0  0  0  0
   -6.1277   -3.2621  -10.4628 O   0  0  0  0  0  0  0  0  0  0  0  0
   -8.1842   -3.3395  -11.2916 N   0  0  0  0  0  0  0  0  0  0  0  0
   -8.3942   -4.6370  -10.7648 O   0  0  0  0  0  0  0  0  0  0  0  0
   -5.2889   -1.9708    0.0059 O   0  0  0  0  0  0  0  0  0  0  0  0
   -3.9538   -1.7024    2.4829 C   0  0  0  0  0  0  0  0  0  0  0  0
   -5.1205   -2.0351    2.5041 O   0  0  0  0  0  0  0  0  0  0  0  0
   -3.1599   -1.6571    3.7631 C   0  0  0  0  0  0  0  0  0  0  0  0
    0.9889    1.9208   -0.0014 H   0  0  0  0  0  0  0  0  0  0  0  0
   -0.5592    1.8932   -0.8794 H   0  0  0  0  0  0  0  0  0  0  0  0
   -0.5453    1.8900    0.9005 H   0  0  0  0  0  0  0  0  0  0  0  0
    0.5109   -0.3436   -0.8917 H   0  0  0  0  0  0  0  0  0  0  0  0
    0.5248   -0.3468    0.8882 H   0  0  0  0  0  0  0  0  0  0  0  0
   -1.4616   -0.7354    2.1232 H   0  0  0  0  0  0  0  0  0  0  0  0
   -3.9385   -1.2664   -2.1225 H   0  0  0  0  0  0  0  0  0  0  0  0
   -2.5573   -1.5431   -3.6550 H   0  0  0  0  0  0  0  0  0  0  0  0
   -3.1787    0.1169   -3.4920 H   0  0  0  0  0  0  0  0  0  0  0  0
    0.2546    0.4437   -3.5543 H   0  0  0  0  0  0  0  0  0  0  0  0
    1.5984    1.1392   -5.5234 H   0  0  0  0  0  0  0  0  0  0  0  0
    0.5706    0.9865   -7.7820 H   0  0  0  0  0  0  0  0  0  0  0  0
   -3.6804   -0.5957   -7.6899 H   0  0  0  0  0  0  0  0  0  0  0  0
   -4.6440   -0.3886  -13.3131 H   0  0  0  0  0  0  0  0  0  0  0  0
   -7.5204   -0.6473  -11.2349 H   0  0  0  0  0  0  0  0  0  0  0  0
   -6.8877   -1.3600  -12.7382 H   0  0  0  0  0  0  0  0  0  0  0  0
   -8.8876   -2.9010  -11.7955 H   0  0  0  0  0  0  0  0  0  0  0  0
   -9.2677   -5.0036  -10.9586 H   0  0  0  0  0  0  0  0  0  0  0  0
   -5.9660   -1.2848    0.0839 H   0  0  0  0  0  0  0  0  0  0  0  0
   -2.1677   -1.2536    3.5612 H   0  0  0  0  0  0  0  0  0  0  0  0
   -3.6710   -1.0204    4.4852 H   0  0  0  0  0  0  0  0  0  0  0  0
   -3.0669   -2.6645    4.1687 H   0  0  0  0  0  0  0  0  0  0  0  0
  1  2  1  0  0  0  0
  1 34  1  0  0  0  0
  1 35  1  0  0  0  0
  1 36  1  0  0  0  0
  2  3  1  0  0  0  0
  2 37  1  0  0  0  0
  2 38  1  0  0  0  0
  3  8  2  0  0  0  0
  3  4  1  0  0  0  0
  4  5  2  0  0  0  0
  4 39  1  0  0  0  0
  5  6  1  0  0  0  0
  5 31  1  0  0  0  0
  6  7  2  0  0  0  0
  6 30  1  0  0  0  0
  7  8  1  0  0  0  0
  7 40  1  0  0  0  0
  8  9  1  0  0  0  0
  9 10  1  0  0  0  0
 10 11  1  0  0  0  0
 10 41  1  0  0  0  0
 10 42  1  0  0  0  0
 11 16  2  0  0  0  0
 11 12  1  0  0  0  0
 12 13  2  0  0  0  0
 12 43  1  0  0  0  0
 13 14  1  0  0  0  0
 13 44  1  0  0  0  0
 14 15  2  0  0  0  0
 14 45  1  0  0  0  0
 15 16  1  0  0  0  0
 15 17  1  0  0  0  0
 17 18  2  0  0  0  0
 17 19  1  0  0  0  0
 19 20  1  0  0  0  0
 19 46  1  0  0  0  0
 20 24  1  0  0  0  0
 20 21  2  0  0  0  0
 21 22  1  0  0  0  0
 22 23  2  0  0  0  0
 22 25  1  0  0  0  0
 23 24  1  0  0  0  0
 23 47  1  0  0  0  0
 25 26  1  0  0  0  0
 25 48  1  0  0  0  0
 25 49  1  0  0  0  0
 26 27  2  0  0  0  0
 26 28  1  0  0  0  0
 28 29  1  0  0  0  0
 28 50  1  0  0  0  0
 29 51  1  0  0  0  0
 30 52  1  0  0  0  0
 31 32  2  0  0  0  0
 31 33  1  0  0  0  0
 33 53  1  0  0  0  0
 33 54  1  0  0  0  0
 33 55  1  0  0  0  0
M  END
$$$$
CHEMBL366212
  -OEChem-07121202283D

 34 35  0     0  0  0  0  0  0999 V2000
   -0.0167    1.3776    0.0096 C   0  0  0  0  0  0  0  0  0  0  0  0
    1.1663    2.0889    0.0021 C   0  0  0  0  0  0  0  0  0  0  0  0
    2.3876    1.4127   -0.0136 C   0  0  0  0  0  0  0  0  0  0  0  0
    2.4074    0.0179   -0.0212 C   0  0  0  0  0  0  0  0  0  0  0  0
    1.2133   -0.6877   -0.0131 C   0  0  0  0  0  0  0  0  0  0  0  0
    0.0021   -0.0041    0.0020 C   0  0  0  0  0  0  0  0  0  0  0  0
    1.2307   -2.4496   -0.0233 S   0  0  0  0  0  0  0  0  0  0  0  0
   -0.5249   -2.9059   -0.0081 C   0  0  0  0  0  0  0  0  0  0  0  0
   -1.1536   -2.3784   -1.1411 F   0  0  0  0  0  0  0  0  0  0  0  0
   -0.6445   -4.2997   -0.0148 F   0  0  0  0  0  0  0  0  0  0  0  0
   -1.1305   -2.3914    1.1433 F   0  0  0  0  0  0  0  0  0  0  0  0
    3.6557    2.1722   -0.0226 C   0  0  0  0  0  0  0  0  0  0  0  0
    4.7180    1.5814   -0.0363 O   0  0  0  0  0  0  0  0  0  0  0  0
    3.6341    3.5198   -0.0156 N   0  0  0  0  0  0  0  0  0  0  0  0
    4.8256    4.2335   -0.0241 C   0  0  0  0  0  0  0  0  0  0  0  0
    4.9974    5.5379   -0.0139 N   0  0  0  0  0  0  0  0  0  0  0  0
    6.2070    6.0668   -0.0239 C   0  0  0  0  0  0  0  0  0  0  0  0
    7.2552    5.2072   -0.0451 C   0  0  0  0  0  0  0  0  0  0  0  0
    6.4003    3.6397   -0.0424 S   0  0  0  0  0  0  0  0  0  0  0  0
    6.4133    7.5595   -0.0129 C   0  0  0  0  0  0  0  0  0  0  0  0
    5.6602    8.1793   -1.1617 C   0  0  0  0  0  0  0  0  0  0  0  0
    5.0189    7.4778   -1.9152 O   0  0  0  0  0  0  0  0  0  0  0  0
    5.6991    9.5130   -1.3518 N   0  0  0  0  0  0  0  0  0  0  0  0
    4.9914   10.0953   -2.4312 O   0  0  0  0  0  0  0  0  0  0  0  0
   -0.9602    1.9029    0.0260 H   0  0  0  0  0  0  0  0  0  0  0  0
    1.1471    3.1687    0.0081 H   0  0  0  0  0  0  0  0  0  0  0  0
    3.3491   -0.5107   -0.0337 H   0  0  0  0  0  0  0  0  0  0  0  0
   -0.9268   -0.5550    0.0083 H   0  0  0  0  0  0  0  0  0  0  0  0
    2.7864    3.9912   -0.0047 H   0  0  0  0  0  0  0  0  0  0  0  0
    8.3152    5.4137   -0.0568 H   0  0  0  0  0  0  0  0  0  0  0  0
    6.0447    7.9703    0.9270 H   0  0  0  0  0  0  0  0  0  0  0  0
    7.4760    7.7802   -0.1140 H   0  0  0  0  0  0  0  0  0  0  0  0
    6.2120   10.0740   -0.7491 H   0  0  0  0  0  0  0  0  0  0  0  0
    5.0793   11.0567   -2.4861 H   0  0  0  0  0  0  0  0  0  0  0  0
  1  6  2  0  0  0  0
  1  2  1  0  0  0  0
  1 25  1  0  0  0  0
  2  3  2  0  0  0  0
  2 26  1  0  0  0  0
  3  4  1  0  0  0  0
  3 12  1  0  0  0  0
  4  5  2  0  0  0  0
  4 27  1  0  0  0  0
  5  6  1  0  0  0  0
  5  7  1  0  0  0  0
  6 28  1  0  0  0  0
  7  8  1  0  0  0  0
  8  9  1  0  0  0  0
  8 10  1  0  0  0  0
  8 11  1  0  0  0  0
 12 13  2  0  0  0  0
 12 14  1  0  0  0  0
 14 15  1  0  0  0  0
 14 29  1  0  0  0  0
 15 19  1  0  0  0  0
 15 16  2  0  0  0  0
 16 17  1  0  0  0  0
 17 18  2  0  0  0  0
 17 20  1  0  0  0  0
 18 19  1  0  0  0  0
 18 30  1  0  0  0  0
 20 21  1  0  0  0  0
 20 31  1  0  0  0  0
 20 32  1  0  0  0  0
 21 22  2  0  0  0  0
 21 23  1  0  0  0  0
 23 24  1  0  0  0  0
 23 33  1  0  0  0  0
 24 34  1  0  0  0  0
M  END
$$$$
CHEMBL360793
  -OEChem-07121202283D

 61 67  0     1  0  0  0  0  0999 V2000
    0.4988    1.4589   -0.0172 C   0  0  0  0  0  0  0  0  0  0  0  0
    0.2243   -0.0229   -0.0097 C   0  0  0  0  0  0  0  0  0  0  0  0
   -0.1883   -0.7229   -1.0317 N   0  3  0  0  0  0  0  0  0  0  0  0
   -0.3276   -2.0040   -0.6698 C   0  0  0  0  0  0  0  0  0  0  0  0
    0.0152   -2.1072    0.6427 C   0  0  0  0  0  0  0  0  0  0  0  0
    0.3709   -0.8432    1.0544 N   0  0  0  0  0  0  0  0  0  0  0  0
    0.8203   -0.4584    2.3946 C   0  0  0  0  0  0  0  0  0  0  0  0
    0.0121   -3.3376    1.4642 C   0  0  0  0  0  0  0  0  0  0  0  0
    0.0036   -3.2675    2.8613 C   0  0  0  0  0  0  0  0  0  0  0  0
    0.0007   -4.3893    3.5593 N   0  0  0  0  0  0  0  0  0  0  0  0
    0.0057   -5.5677    2.9532 C   0  0  0  0  0  0  0  0  0  0  0  0
    0.0142   -5.6759    1.6324 N   0  0  0  0  0  0  0  0  0  0  0  0
    0.0118   -4.6012    0.8639 C   0  0  0  0  0  0  0  0  0  0  0  0
    0.0023   -6.7190    3.7219 N   0  0  0  0  0  0  0  0  0  0  0  0
   -0.0129   -6.7990    5.1862 C   0  0  0  0  0  0  0  0  0  0  0  0
   -0.0117   -8.2605    5.5602 C   0  0  0  0  0  0  0  0  0  0  0  0
   -0.0235   -8.8760    6.8365 C   0  0  0  0  0  0  0  0  0  0  0  0
   -0.0195  -10.3468    6.8956 C   0  0  0  0  0  0  0  0  0  0  0  0
   -0.0310  -11.0301    8.1112 C   0  0  0  0  0  0  0  0  0  0  0  0
   -0.0272  -12.3971    8.1190 C   0  0  0  0  0  0  0  0  0  0  0  0
   -0.0119  -13.1088    6.9273 C   0  0  0  0  0  0  0  0  0  0  0  0
    0.0001  -12.4529    5.7160 C   0  0  0  0  0  0  0  0  0  0  0  0
   -0.0040  -11.0609    5.6848 C   0  0  0  0  0  0  0  0  0  0  0  0
    0.0067  -10.3743    4.4944 N   0  0  0  0  0  0  0  0  0  0  0  0
    0.0028   -9.0133    4.4414 C   0  0  0  0  0  0  0  0  0  0  0  0
    0.0068   -8.1017    3.2346 C   0  0  2  0  0  0  0  0  0  0  0  0
    1.2460   -8.3502    2.4139 C   0  0  0  0  0  0  0  0  0  0  0  0
    2.4555   -7.8022    2.8002 C   0  0  0  0  0  0  0  0  0  0  0  0
    3.5936   -8.0301    2.0549 C   0  0  0  0  0  0  0  0  0  0  0  0
    3.5341   -8.8146    0.9056 C   0  0  0  0  0  0  0  0  0  0  0  0
    2.3123   -9.3533    0.5238 C   0  0  0  0  0  0  0  0  0  0  0  0
    1.1788   -9.1321    1.2745 C   0  0  0  0  0  0  0  0  0  0  0  0
    2.5492  -10.1277   -0.7583 C   0  0  0  0  0  0  0  0  0  0  0  0
    3.9346   -9.5993   -1.1999 C   0  0  0  0  0  0  0  0  0  0  0  0
    4.5226   -9.1729    0.0409 O   0  0  0  0  0  0  0  0  0  0  0  0
   -0.0361   -8.2066    7.8565 O   0  0  0  0  0  0  0  0  0  0  0  0
    1.5386    1.6344   -0.2932 H   0  0  0  0  0  0  0  0  0  0  0  0
   -0.1561    1.9461   -0.7395 H   0  0  0  0  0  0  0  0  0  0  0  0
    0.3125    1.8679    0.9758 H   0  0  0  0  0  0  0  0  0  0  0  0
   -0.6546   -2.8124   -1.3069 H   0  0  0  0  0  0  0  0  0  0  0  0
   -0.0463   -0.2789    3.0308 H   0  0  0  0  0  0  0  0  0  0  0  0
    1.4233   -1.2607    2.8199 H   0  0  0  0  0  0  0  0  0  0  0  0
    1.4184    0.4506    2.3303 H   0  0  0  0  0  0  0  0  0  0  0  0
   -0.0001   -2.3106    3.3620 H   0  0  0  0  0  0  0  0  0  0  0  0
    0.0137   -4.6968   -0.2118 H   0  0  0  0  0  0  0  0  0  0  0  0
    0.8737   -6.3122    5.5926 H   0  0  0  0  0  0  0  0  0  0  0  0
   -0.9112   -6.3185    5.5738 H   0  0  0  0  0  0  0  0  0  0  0  0
   -0.0426  -10.4821    9.0418 H   0  0  0  0  0  0  0  0  0  0  0  0
   -0.0358  -12.9276    9.0597 H   0  0  0  0  0  0  0  0  0  0  0  0
   -0.0091  -14.1885    6.9500 H   0  0  0  0  0  0  0  0  0  0  0  0
    0.0120  -13.0160    4.7945 H   0  0  0  0  0  0  0  0  0  0  0  0
   -0.8812   -8.2830    2.6292 H   0  0  0  0  0  0  0  0  0  0  0  0
    2.5092   -7.1924    3.6899 H   0  0  0  0  0  0  0  0  0  0  0  0
    4.5343   -7.5988    2.3638 H   0  0  0  0  0  0  0  0  0  0  0  0
    0.2372   -9.5657    0.9717 H   0  0  0  0  0  0  0  0  0  0  0  0
    2.5848  -11.1998   -0.5649 H   0  0  0  0  0  0  0  0  0  0  0  0
    1.7876   -9.8926   -1.5018 H   0  0  0  0  0  0  0  0  0  0  0  0
    4.5249  -10.3954   -1.6536 H   0  0  0  0  0  0  0  0  0  0  0  0
    3.8267   -8.7586   -1.8852 H   0  0  0  0  0  0  0  0  0  0  0  0
    0.0174  -10.8758    3.6641 H   0  0  0  0  0  0  0  0  0  0  0  0
   -0.3669   -0.3689   -1.9169 H   0  0  0  0  0  0  0  0  0  0  0  0
  1  2  1  0  0  0  0
  1 37  1  0  0  0  0
  1 38  1  0  0  0  0
  1 39  1  0  0  0  0
  2  6  1  0  0  0  0
  2  3  2  0  0  0  0
  3  4  1  0  0  0  0
  3 61  1  0  0  0  0
  4  5  2  0  0  0  0
  4 40  1  0  0  0  0
  5  6  1  0  0  0  0
  5  8  1  0  0  0  0
  6  7  1  0  0  0  0
  7 41  1  0  0  0  0
  7 42  1  0  0  0  0
  7 43  1  0  0  0  0
  8 13  2  0  0  0  0
  8  9  1  0  0  0  0
  9 10  2  0  0  0  0
  9 44  1  0  0  0  0
 10 11  1  0  0  0  0
 11 12  2  0  0  0  0
 11 14  1  0  0  0  0
 12 13  1  0  0  0  0
 13 45  1  0  0  0  0
 14 26  1  0  0  0  0
 14 15  1  0  0  0  0
 15 16  1  0  0  0  0
 15 46  1  0  0  0  0
 15 47  1  0  0  0  0
 16 25  2  0  0  0  0
 16 17  1  0  0  0  0
 17 18  1  0  0  0  0
 17 36  2  0  0  0  0
 18 23  2  0  0  0  0
 18 19  1  0  0  0  0
 19 20  2  0  0  0  0
 19 48  1  0  0  0  0
 20 21  1  0  0  0  0
 20 49  1  0  0  0  0
 21 22  2  0  0  0  0
 21 50  1  0  0  0  0
 22 23  1  0  0  0  0
 22 51  1  0  0  0  0
 23 24  1  0  0  0  0
 24 25  1  0  0  0  0
 24 60  1  0  0  0  0
 25 26  1  0  0  0  0
 26 27  1  0  0  0  0
 26 52  1  0  0  0  0
 27 32  2  0  0  0  0
 27 28  1  0  0  0  0
 28 29  2  0  0  0  0
 28 53  1  0  0  0  0
 29 30  1  0  0  0  0
 29 54  1  0  0  0  0
 30 35  1  0  0  0  0
 30 31  2  0  0  0  0
 31 32  1  0  0  0  0
 31 33  1  0  0  0  0
 32 55  1  0  0  0  0
 33 34  1  0  0  0  0
 33 56  1  0  0  0  0
 33 57  1  0  0  0  0
 34 35  1  0  0  0  0
 34 58  1  0  0  0  0
 34 59  1  0  0  0  0
M  CHG  1   3   1
M  END
$$$$
CHEMBL360793
  -OEChem-07121202283D

 60 66  0     1  0  0  0  0  0999 V2000
    0.4988    1.4589   -0.0172 C   0  0  0  0  0  0  0  0  0  0  0  0
    0.2243   -0.0229   -0.0097 C   0  0  0  0  0  0  0  0  0  0  0  0
   -0.1883   -0.7229   -1.0317 N   0  0  0  0  0  0  0  0  0  0  0  0
   -0.3276   -2.0040   -0.6698 C   0  0  0  0  0  0  0  0  0  0  0  0
    0.0152   -2.1072    0.6427 C   0  0  0  0  0  0  0  0  0  0  0  0
    0.3709   -0.8432    1.0544 N   0  0  0  0  0  0  0  0  0  0  0  0
    0.8203   -0.4584    2.3946 C   0  0  0  0  0  0  0  0  0  0  0  0
    0.0121   -3.3376    1.4642 C   0  0  0  0  0  0  0  0  0  0  0  0
    0.0036   -3.2675    2.8613 C   0  0  0  0  0  0  0  0  0  0  0  0
    0.0007   -4.3893    3.5593 N   0  0  0  0  0  0  0  0  0  0  0  0
    0.0057   -5.5677    2.9532 C   0  0  0  0  0  0  0  0  0  0  0  0
    0.0142   -5.6759    1.6324 N   0  0  0  0  0  0  0  0  0  0  0  0
    0.0118   -4.6012    0.8639 C   0  0  0  0  0  0  0  0  0  0  0  0
    0.0023   -6.7190    3.7219 N   0  0  0  0  0  0  0  0  0  0  0  0
   -0.0129   -6.7990    5.1862 C   0  0  0  0  0  0  0  0  0  0  0  0
   -0.0117   -8.2605    5.5602 C   0  0  0  0  0  0  0  0  0  0  0  0
   -0.0235   -8.8760    6.8365 C   0  0  0  0  0  0  0  0  0  0  0  0
   -0.0195  -10.3468    6.8956 C   0  0  0  0  0  0  0  0  0  0  0  0
   -0.0310  -11.0301    8.1112 C   0  0  0  0  0  0  0  0  0  0  0  0
   -0.0272  -12.3971    8.1190 C   0  0  0  0  0  0  0  0  0  0  0  0
   -0.0119  -13.1088    6.9273 C   0  0  0  0  0  0  0  0  0  0  0  0
    0.0001  -12.4529    5.7160 C   0  0  0  0  0  0  0  0  0  0  0  0
   -0.0040  -11.0609    5.6848 C   0  0  0  0  0  0  0  0  0  0  0  0
    0.0067  -10.3743    4.4944 N   0  0  0  0  0  0  0  0  0  0  0  0
    0.0028   -9.0133    4.4414 C   0  0  0  0  0  0  0  0  0  0  0  0
    0.0068   -8.1017    3.2346 C   0  0  2  0  0  0  0  0  0  0  0  0
    1.2460   -8.3502    2.4139 C   0  0  0  0  0  0  0  0  0  0  0  0
    2.4555   -7.8022    2.8002 C   0  0  0  0  0  0  0  0  0  0  0  0
    3.5936   -8.0301    2.0549 C   0  0  0  0  0  0  0  0  0  0  0  0
    3.5341   -8.8146    0.9056 C   0  0  0  0  0  0  0  0  0  0  0  0
    2.3123   -9.3533    0.5238 C   0  0  0  0  0  0  0  0  0  0  0  0
    1.1788   -9.1321    1.2745 C   0  0  0  0  0  0  0  0  0  0  0  0
    2.5492  -10.1277   -0.7583 C   0  0  0  0  0  0  0  0  0  0  0  0
    3.9346   -9.5993   -1.1999 C   0  0  0  0  0  0  0  0  0  0  0  0
    4.5226   -9.1729    0.0409 O   0  0  0  0  0  0  0  0  0  0  0  0
   -0.0361   -8.2066    7.8565 O   0  0  0  0  0  0  0  0  0  0  0  0
    1.5386    1.6344   -0.2932 H   0  0  0  0  0  0  0  0  0  0  0  0
   -0.1561    1.9461   -0.7395 H   0  0  0  0  0  0  0  0  0  0  0  0
    0.3125    1.8679    0.9758 H   0  0  0  0  0  0  0  0  0  0  0  0
   -0.6546   -2.8124   -1.3069 H   0  0  0  0  0  0  0  0  0  0  0  0
   -0.0463   -0.2789    3.0308 H   0  0  0  0  0  0  0  0  0  0  0  0
    1.4233   -1.2607    2.8199 H   0  0  0  0  0  0  0  0  0  0  0  0
    1.4184    0.4506    2.3303 H   0  0  0  0  0  0  0  0  0  0  0  0
   -0.0001   -2.3106    3.3620 H   0  0  0  0  0  0  0  0  0  0  0  0
    0.0137   -4.6968   -0.2118 H   0  0  0  0  0  0  0  0  0  0  0  0
    0.8737   -6.3122    5.5926 H   0  0  0  0  0  0  0  0  0  0  0  0
   -0.9112   -6.3185    5.5738 H   0  0  0  0  0  0  0  0  0  0  0  0
   -0.0426  -10.4821    9.0418 H   0  0  0  0  0  0  0  0  0  0  0  0
   -0.0358  -12.9276    9.0597 H   0  0  0  0  0  0  0  0  0  0  0  0
   -0.0091  -14.1885    6.9500 H   0  0  0  0  0  0  0  0  0  0  0  0
    0.0120  -13.0160    4.7945 H   0  0  0  0  0  0  0  0  0  0  0  0
   -0.8812   -8.2830    2.6292 H   0  0  0  0  0  0  0  0  0  0  0  0
    2.5092   -7.1924    3.6899 H   0  0  0  0  0  0  0  0  0  0  0  0
    4.5343   -7.5988    2.3638 H   0  0  0  0  0  0  0  0  0  0  0  0
    0.2372   -9.5657    0.9717 H   0  0  0  0  0  0  0  0  0  0  0  0
    2.5848  -11.1998   -0.5649 H   0  0  0  0  0  0  0  0  0  0  0  0
    1.7876   -9.8926   -1.5018 H   0  0  0  0  0  0  0  0  0  0  0  0
    4.5249  -10.3954   -1.6536 H   0  0  0  0  0  0  0  0  0  0  0  0
    3.8267   -8.7586   -1.8852 H   0  0  0  0  0  0  0  0  0  0  0  0
    0.0174  -10.8758    3.6641 H   0  0  0  0  0  0  0  0  0  0  0  0
  1  2  1  0  0  0  0
  1 37  1  0  0  0  0
  1 38  1  0  0  0  0
  1 39  1  0  0  0  0
  2  6  1  0  0  0  0
  2  3  2  0  0  0  0
  3  4  1  0  0  0  0
  4  5  2  0  0  0  0
  4 40  1  0  0  0  0
  5  6  1  0  0  0  0
  5  8  1  0  0  0  0
  6  7  1  0  0  0  0
  7 41  1  0  0  0  0
  7 42  1  0  0  0  0
  7 43  1  0  0  0  0
  8 13  2  0  0  0  0
  8  9  1  0  0  0  0
  9 10  2  0  0  0  0
  9 44  1  0  0  0  0
 10 11  1  0  0  0  0
 11 12  2  0  0  0  0
 11 14  1  0  0  0  0
 12 13  1  0  0  0  0
 13 45  1  0  0  0  0
 14 26  1  0  0  0  0
 14 15  1  0  0  0  0
 15 16  1  0  0  0  0
 15 46  1  0  0  0  0
 15 47  1  0  0  0  0
 16 25  2  0  0  0  0
 16 17  1  0  0  0  0
 17 18  1  0  0  0  0
 17 36  2  0  0  0  0
 18 23  2  0  0  0  0
 18 19  1  0  0  0  0
 19 20  2  0  0  0  0
 19 48  1  0  0  0  0
 20 21  1  0  0  0  0
 20 49  1  0  0  0  0
 21 22  2  0  0  0  0
 21 50  1  0  0  0  0
 22 23  1  0  0  0  0
 22 51  1  0  0  0  0
 23 24  1  0  0  0  0
 24 25  1  0  0  0  0
 24 60  1  0  0  0  0
 25 26  1  0  0  0  0
 26 27  1  0  0  0  0
 26 52  1  0  0  0  0
 27 32  2  0  0  0  0
 27 28  1  0  0  0  0
 28 29  2  0  0  0  0
 28 53  1  0  0  0  0
 29 30  1  0  0  0  0
 29 54  1  0  0  0  0
 30 35  1  0  0  0  0
 30 31  2  0  0  0  0
 31 32  1  0  0  0  0
 31 33  1  0  0  0  0
 32 55  1  0  0  0  0
 33 34  1  0  0  0  0
 33 56  1  0  0  0  0
 33 57  1  0  0  0  0
 34 35  1  0  0  0  0
 34 58  1  0  0  0  0
 34 59  1  0  0  0  0
M  END
$$$$
CHEMBL360793
  -OEChem-07121202283D

 61 67  0     1  0  0  0  0  0999 V2000
    0.4988    1.4589   -0.0172 C   0  0  0  0  0  0  0  0  0  0  0  0
    0.2243   -0.0229   -0.0097 C   0  0  0  0  0  0  0  0  0  0  0  0
   -0.1883   -0.7229   -1.0317 N   0  3  0  0  0  0  0  0  0  0  0  0
   -0.3276   -2.0040   -0.6698 C   0  0  0  0  0  0  0  0  0  0  0  0
    0.0152   -2.1072    0.6427 C   0  0  0  0  0  0  0  0  0  0  0  0
    0.3709   -0.8432    1.0544 N   0  0  0  0  0  0  0  0  0  0  0  0
    0.8203   -0.4584    2.3946 C   0  0  0  0  0  0  0  0  0  0  0  0
    0.0121   -3.3376    1.4642 C   0  0  0  0  0  0  0  0  0  0  0  0
    0.0036   -3.2675    2.8613 C   0  0  0  0  0  0  0  0  0  0  0  0
    0.0007   -4.3893    3.5593 N   0  0  0  0  0  0  0  0  0  0  0  0
    0.0057   -5.5677    2.9532 C   0  0  0  0  0  0  0  0  0  0  0  0
    0.0142   -5.6759    1.6324 N   0  0  0  0  0  0  0  0  0  0  0  0
    0.0118   -4.6012    0.8639 C   0  0  0  0  0  0  0  0  0  0  0  0
    0.0023   -6.7190    3.7219 N   0  0  0  0  0  0  0  0  0  0  0  0
   -0.0129   -6.7990    5.1862 C   0  0  0  0  0  0  0  0  0  0  0  0
   -0.0117   -8.2605    5.5602 C   0  0  0  0  0  0  0  0  0  0  0  0
   -0.0235   -8.8760    6.8365 C   0  0  0  0  0  0  0  0  0  0  0  0
   -0.0195  -10.3468    6.8956 C   0  0  0  0  0  0  0  0  0  0  0  0
   -0.0310  -11.0301    8.1112 C   0  0  0  0  0  0  0  0  0  0  0  0
   -0.0272  -12.3971    8.1190 C   0  0  0  0  0  0  0  0  0  0  0  0
   -0.0119  -13.1088    6.9273 C   0  0  0  0  0  0  0  0  0  0  0  0
    0.0001  -12.4529    5.7160 C   0  0  0  0  0  0  0  0  0  0  0  0
   -0.0040  -11.0609    5.6848 C   0  0  0  0  0  0  0  0  0  0  0  0
    0.0067  -10.3743    4.4944 N   0  0  0  0  0  0  0  0  0  0  0  0
    0.0028   -9.0133    4.4414 C   0  0  0  0  0  0  0  0  0  0  0  0
    0.0068   -8.1017    3.2346 C   0  0  1  0  0  0  0  0  0  0  0  0
   -1.2209   -8.3524    2.3975 C   0  0  0  0  0  0  0  0  0  0  0  0
   -2.4341   -7.7973    2.7614 C   0  0  0  0  0  0  0  0  0  0  0  0
   -3.5600   -8.0202    1.9964 C   0  0  0  0  0  0  0  0  0  0  0  0
   -3.4845   -8.8074    0.8498 C   0  0  0  0  0  0  0  0  0  0  0  0
   -2.2622   -9.3655    0.4988 C   0  0  0  0  0  0  0  0  0  0  0  0
   -1.1371   -9.1342    1.2591 C   0  0  0  0  0  0  0  0  0  0  0  0
   -2.4903  -10.1787   -0.7607 C   0  0  0  0  0  0  0  0  0  0  0  0
   -4.0325  -10.2971   -0.7902 C   0  0  0  0  0  0  0  0  0  0  0  0
   -4.4544   -9.1423   -0.0447 O   0  0  0  0  0  0  0  0  0  0  0  0
   -0.0361   -8.2066    7.8565 O   0  0  0  0  0  0  0  0  0  0  0  0
    1.5386    1.6344   -0.2932 H   0  0  0  0  0  0  0  0  0  0  0  0
   -0.1561    1.9461   -0.7395 H   0  0  0  0  0  0  0  0  0  0  0  0
    0.3125    1.8679    0.9758 H   0  0  0  0  0  0  0  0  0  0  0  0
   -0.6546   -2.8124   -1.3069 H   0  0  0  0  0  0  0  0  0  0  0  0
   -0.0463   -0.2789    3.0308 H   0  0  0  0  0  0  0  0  0  0  0  0
    1.4233   -1.2607    2.8199 H   0  0  0  0  0  0  0  0  0  0  0  0
    1.4184    0.4506    2.3303 H   0  0  0  0  0  0  0  0  0  0  0  0
   -0.0001   -2.3106    3.3620 H   0  0  0  0  0  0  0  0  0  0  0  0
    0.0137   -4.6968   -0.2118 H   0  0  0  0  0  0  0  0  0  0  0  0
    0.8737   -6.3122    5.5926 H   0  0  0  0  0  0  0  0  0  0  0  0
   -0.9112   -6.3185    5.5738 H   0  0  0  0  0  0  0  0  0  0  0  0
   -0.0426  -10.4821    9.0418 H   0  0  0  0  0  0  0  0  0  0  0  0
   -0.0358  -12.9276    9.0597 H   0  0  0  0  0  0  0  0  0  0  0  0
   -0.0091  -14.1885    6.9500 H   0  0  0  0  0  0  0  0  0  0  0  0
    0.0120  -13.0160    4.7945 H   0  0  0  0  0  0  0  0  0  0  0  0
    0.9031   -8.2814    2.6410 H   0  0  0  0  0  0  0  0  0  0  0  0
   -2.5004   -7.1862    3.6494 H   0  0  0  0  0  0  0  0  0  0  0  0
   -4.5034   -7.5824    2.2873 H   0  0  0  0  0  0  0  0  0  0  0  0
   -0.1907   -9.5659    0.9688 H   0  0  0  0  0  0  0  0  0  0  0  0
   -2.1235   -9.6476   -1.6391 H   0  0  0  0  0  0  0  0  0  0  0  0
   -2.0257  -11.1614   -0.6793 H   0  0  0  0  0  0  0  0  0  0  0  0
   -4.4038  -10.2526   -1.8140 H   0  0  0  0  0  0  0  0  0  0  0  0
   -4.3590  -11.2140   -0.2994 H   0  0  0  0  0  0  0  0  0  0  0  0
    0.0174  -10.8758    3.6641 H   0  0  0  0  0  0  0  0  0  0  0  0
   -0.3669   -0.3689   -1.9169 H   0  0  0  0  0  0  0  0  0  0  0  0
  1  2  1  0  0  0  0
  1 37  1  0  0  0  0
  1 38  1  0  0  0  0
  1 39  1  0  0  0  0
  2  6  1  0  0  0  0
  2  3  2  0  0  0  0
  3  4  1  0  0  0  0
  3 61  1  0  0  0  0
  4  5  2  0  0  0  0
  4 40  1  0  0  0  0
  5  6  1  0  0  0  0
  5  8  1  0  0  0  0
  6  7  1  0  0  0  0
  7 41  1  0  0  0  0
  7 42  1  0  0  0  0
  7 43  1  0  0  0  0
  8 13  2  0  0  0  0
  8  9  1  0  0  0  0
  9 10  2  0  0  0  0
  9 44  1  0  0  0  0
 10 11  1  0  0  0  0
 11 12  2  0  0  0  0
 11 14  1  0  0  0  0
 12 13  1  0  0  0  0
 13 45  1  0  0  0  0
 14 26  1  0  0  0  0
 14 15  1  0  0  0  0
 15 16  1  0  0  0  0
 15 46  1  0  0  0  0
 15 47  1  0  0  0  0
 16 25  2  0  0  0  0
 16 17  1  0  0  0  0
 17 18  1  0  0  0  0
 17 36  2  0  0  0  0
 18 23  2  0  0  0  0
 18 19  1  0  0  0  0
 19 20  2  0  0  0  0
 19 48  1  0  0  0  0
 20 21  1  0  0  0  0
 20 49  1  0  0  0  0
 21 22  2  0  0  0  0
 21 50  1  0  0  0  0
 22 23  1  0  0  0  0
 22 51  1  0  0  0  0
 23 24  1  0  0  0  0
 24 25  1  0  0  0  0
 24 60  1  0  0  0  0
 25 26  1  0  0  0  0
 26 27  1  0  0  0  0
 26 52  1  0  0  0  0
 27 32  2  0  0  0  0
 27 28  1  0  0  0  0
 28 29  2  0  0  0  0
 28 53  1  0  0  0  0
 29 30  1  0  0  0  0
 29 54  1  0  0  0  0
 30 35  1  0  0  0  0
 30 31  2  0  0  0  0
 31 32  1  0  0  0  0
 31 33  1  0  0  0  0
 32 55  1  0  0  0  0
 33 34  1  0  0  0  0
 33 56  1  0  0  0  0
 33 57  1  0  0  0  0
 34 35  1  0  0  0  0
 34 58  1  0  0  0  0
 34 59  1  0  0  0  0
M  CHG  1   3   1
M  END
$$$$
CHEMBL360793
  -OEChem-07121202283D

 60 66  0     1  0  0  0  0  0999 V2000
    0.4988    1.4589   -0.0172 C   0  0  0  0  0  0  0  0  0  0  0  0
    0.2243   -0.0229   -0.0097 C   0  0  0  0  0  0  0  0  0  0  0  0
   -0.1883   -0.7229   -1.0317 N   0  0  0  0  0  0  0  0  0  0  0  0
   -0.3276   -2.0040   -0.6698 C   0  0  0  0  0  0  0  0  0  0  0  0
    0.0152   -2.1072    0.6427 C   0  0  0  0  0  0  0  0  0  0  0  0
    0.3709   -0.8432    1.0544 N   0  0  0  0  0  0  0  0  0  0  0  0
    0.8203   -0.4584    2.3946 C   0  0  0  0  0  0  0  0  0  0  0  0
    0.0121   -3.3376    1.4642 C   0  0  0  0  0  0  0  0  0  0  0  0
    0.0036   -3.2675    2.8613 C   0  0  0  0  0  0  0  0  0  0  0  0
    0.0007   -4.3893    3.5593 N   0  0  0  0  0  0  0  0  0  0  0  0
    0.0057   -5.5677    2.9532 C   0  0  0  0  0  0  0  0  0  0  0  0
    0.0142   -5.6759    1.6324 N   0  0  0  0  0  0  0  0  0  0  0  0
    0.0118   -4.6012    0.8639 C   0  0  0  0  0  0  0  0  0  0  0  0
    0.0023   -6.7190    3.7219 N   0  0  0  0  0  0  0  0  0  0  0  0
   -0.0129   -6.7990    5.1862 C   0  0  0  0  0  0  0  0  0  0  0  0
   -0.0117   -8.2605    5.5602 C   0  0  0  0  0  0  0  0  0  0  0  0
   -0.0235   -8.8760    6.8365 C   0  0  0  0  0  0  0  0  0  0  0  0
   -0.0195  -10.3468    6.8956 C   0  0  0  0  0  0  0  0  0  0  0  0
   -0.0310  -11.0301    8.1112 C   0  0  0  0  0  0  0  0  0  0  0  0
   -0.0272  -12.3971    8.1190 C   0  0  0  0  0  0  0  0  0  0  0  0
   -0.0119  -13.1088    6.9273 C   0  0  0  0  0  0  0  0  0  0  0  0
    0.0001  -12.4529    5.7160 C   0  0  0  0  0  0  0  0  0  0  0  0
   -0.0040  -11.0609    5.6848 C   0  0  0  0  0  0  0  0  0  0  0  0
    0.0067  -10.3743    4.4944 N   0  0  0  0  0  0  0  0  0  0  0  0
    0.0028   -9.0133    4.4414 C   0  0  0  0  0  0  0  0  0  0  0  0
    0.0068   -8.1017    3.2346 C   0  0  1  0  0  0  0  0  0  0  0  0
   -1.2209   -8.3524    2.3975 C   0  0  0  0  0  0  0  0  0  0  0  0
   -2.4341   -7.7973    2.7614 C   0  0  0  0  0  0  0  0  0  0  0  0
   -3.5600   -8.0202    1.9964 C   0  0  0  0  0  0  0  0  0  0  0  0
   -3.4845   -8.8074    0.8498 C   0  0  0  0  0  0  0  0  0  0  0  0
   -2.2622   -9.3655    0.4988 C   0  0  0  0  0  0  0  0  0  0  0  0
   -1.1371   -9.1342    1.2591 C   0  0  0  0  0  0  0  0  0  0  0  0
   -2.4903  -10.1787   -0.7607 C   0  0  0  0  0  0  0  0  0  0  0  0
   -4.0325  -10.2971   -0.7902 C   0  0  0  0  0  0  0  0  0  0  0  0
   -4.4544   -9.1423   -0.0447 O   0  0  0  0  0  0  0  0  0  0  0  0
   -0.0361   -8.2066    7.8565 O   0  0  0  0  0  0  0  0  0  0  0  0
    1.5386    1.6344   -0.2932 H   0  0  0  0  0  0  0  0  0  0  0  0
   -0.1561    1.9461   -0.7395 H   0  0  0  0  0  0  0  0  0  0  0  0
    0.3125    1.8679    0.9758 H   0  0  0  0  0  0  0  0  0  0  0  0
   -0.6546   -2.8124   -1.3069 H   0  0  0  0  0  0  0  0  0  0  0  0
   -0.0463   -0.2789    3.0308 H   0  0  0  0  0  0  0  0  0  0  0  0
    1.4233   -1.2607    2.8199 H   0  0  0  0  0  0  0  0  0  0  0  0
    1.4184    0.4506    2.3303 H   0  0  0  0  0  0  0  0  0  0  0  0
   -0.0001   -2.3106    3.3620 H   0  0  0  0  0  0  0  0  0  0  0  0
    0.0137   -4.6968   -0.2118 H   0  0  0  0  0  0  0  0  0  0  0  0
    0.8737   -6.3122    5.5926 H   0  0  0  0  0  0  0  0  0  0  0  0
   -0.9112   -6.3185    5.5738 H   0  0  0  0  0  0  0  0  0  0  0  0
   -0.0426  -10.4821    9.0418 H   0  0  0  0  0  0  0  0  0  0  0  0
   -0.0358  -12.9276    9.0597 H   0  0  0  0  0  0  0  0  0  0  0  0
   -0.0091  -14.1885    6.9500 H   0  0  0  0  0  0  0  0  0  0  0  0
    0.0120  -13.0160    4.7945 H   0  0  0  0  0  0  0  0  0  0  0  0
    0.9031   -8.2814    2.6410 H   0  0  0  0  0  0  0  0  0  0  0  0
   -2.5004   -7.1862    3.6494 H   0  0  0  0  0  0  0  0  0  0  0  0
   -4.5034   -7.5824    2.2873 H   0  0  0  0  0  0  0  0  0  0  0  0
   -0.1907   -9.5659    0.9688 H   0  0  0  0  0  0  0  0  0  0  0  0
   -2.1235   -9.6476   -1.6391 H   0  0  0  0  0  0  0  0  0  0  0  0
   -2.0257  -11.1614   -0.6793 H   0  0  0  0  0  0  0  0  0  0  0  0
   -4.4038  -10.2526   -1.8140 H   0  0  0  0  0  0  0  0  0  0  0  0
   -4.3590  -11.2140   -0.2994 H   0  0  0  0  0  0  0  0  0  0  0  0
    0.0174  -10.8758    3.6641 H   0  0  0  0  0  0  0  0  0  0  0  0
  1  2  1  0  0  0  0
  1 37  1  0  0  0  0
  1 38  1  0  0  0  0
  1 39  1  0  0  0  0
  2  6  1  0  0  0  0
  2  3  2  0  0  0  0
  3  4  1  0  0  0  0
  4  5  2  0  0  0  0
  4 40  1  0  0  0  0
  5  6  1  0  0  0  0
  5  8  1  0  0  0  0
  6  7  1  0  0  0  0
  7 41  1  0  0  0  0
  7 42  1  0  0  0  0
  7 43  1  0  0  0  0
  8 13  2  0  0  0  0
  8  9  1  0  0  0  0
  9 10  2  0  0  0  0
  9 44  1  0  0  0  0
 10 11  1  0  0  0  0
 11 12  2  0  0  0  0
 11 14  1  0  0  0  0
 12 13  1  0  0  0  0
 13 45  1  0  0  0  0
 14 26  1  0  0  0  0
 14 15  1  0  0  0  0
 15 16  1  0  0  0  0
 15 46  1  0  0  0  0
 15 47  1  0  0  0  0
 16 25  2  0  0  0  0
 16 17  1  0  0  0  0
 17 18  1  0  0  0  0
 17 36  2  0  0  0  0
 18 23  2  0  0  0  0
 18 19  1  0  0  0  0
 19 20  2  0  0  0  0
 19 48  1  0  0  0  0
 20 21  1  0  0  0  0
 20 49  1  0  0  0  0
 21 22  2  0  0  0  0
 21 50  1  0  0  0  0
 22 23  1  0  0  0  0
 22 51  1  0  0  0  0
 23 24  1  0  0  0  0
 24 25  1  0  0  0  0
 24 60  1  0  0  0  0
 25 26  1  0  0  0  0
 26 27  1  0  0  0  0
 26 52  1  0  0  0  0
 27 32  2  0  0  0  0
 27 28  1  0  0  0  0
 28 29  2  0  0  0  0
 28 53  1  0  0  0  0
 29 30  1  0  0  0  0
 29 54  1  0  0  0  0
 30 35  1  0  0  0  0
 30 31  2  0  0  0  0
 31 32  1  0  0  0  0
 31 33  1  0  0  0  0
 32 55  1  0  0  0  0
 33 34  1  0  0  0  0
 33 56  1  0  0  0  0
 33 57  1  0  0  0  0
 34 35  1  0  0  0  0
 34 58  1  0  0  0  0
 34 59  1  0  0  0  0
M  END
$$$$
CHEMBL177881
  -OEChem-07121202283D

 54 60  0     1  0  0  0  0  0999 V2000
   -0.0165    1.3628    0.0095 C   0  0  0  0  0  0  0  0  0  0  0  0
    1.1698    2.0838    0.0021 C   0  0  0  0  0  0  0  0  0  0  0  0
    2.3862    1.4376   -0.0135 C   0  0  0  0  0  0  0  0  0  0  0  0
    2.4284    0.0458   -0.0214 C   0  0  0  0  0  0  0  0  0  0  0  0
    1.2231   -0.6777   -0.0133 C   0  0  0  0  0  0  0  0  0  0  0  0
    0.0021   -0.0041    0.0020 C   0  0  0  0  0  0  0  0  0  0  0  0
    1.2934   -2.1480   -0.0219 C   0  0  0  0  0  0  0  0  0  0  0  0
    2.5744   -2.7535   -0.0380 C   0  0  0  0  0  0  0  0  0  0  0  0
    3.6874   -1.9921   -0.0449 C   0  0  0  0  0  0  0  0  0  0  0  0
    3.6240   -0.6315   -0.0374 N   0  0  0  0  0  0  0  0  0  0  0  0
    4.9010   -2.8944   -0.0614 C   0  0  2  0  0  0  0  0  0  0  0  0
    4.4244   -4.2808   -0.0638 N   0  0  0  0  0  0  0  0  0  0  0  0
    2.9595   -4.2121   -0.0492 C   0  0  0  0  0  0  0  0  0  0  0  0
    5.2010   -5.4247   -0.0782 C   0  0  0  0  0  0  0  0  0  0  0  0
    6.5213   -5.3069   -0.0860 N   0  0  0  0  0  0  0  0  0  0  0  0
    7.2971   -6.3759   -0.0997 C   0  0  0  0  0  0  0  0  0  0  0  0
    6.7067   -7.6428   -0.1059 C   0  0  0  0  0  0  0  0  0  0  0  0
    5.3114   -7.7240   -0.0973 C   0  0  0  0  0  0  0  0  0  0  0  0
    4.6042   -6.6084   -0.0783 N   0  0  0  0  0  0  0  0  0  0  0  0
    7.5394   -8.8695   -0.1218 C   0  0  0  0  0  0  0  0  0  0  0  0
    6.9262  -10.1212   -0.1335 C   0  0  0  0  0  0  0  0  0  0  0  0
    7.7165  -11.2568   -0.1482 C   0  0  0  0  0  0  0  0  0  0  0  0
    9.0963  -11.1040   -0.1508 C   0  0  0  0  0  0  0  0  0  0  0  0
    9.6376   -9.8324   -0.1386 C   0  0  0  0  0  0  0  0  0  0  0  0
    8.8622   -8.7668   -0.1302 N   0  0  0  0  0  0  0  0  0  0  0  0
    5.7400   -2.6447    1.1653 C   0  0  0  0  0  0  0  0  0  0  0  0
    5.3808   -3.2210    2.3752 C   0  0  0  0  0  0  0  0  0  0  0  0
    6.1346   -3.0046    3.5088 C   0  0  0  0  0  0  0  0  0  0  0  0
    7.2669   -2.2020    3.4428 C   0  0  0  0  0  0  0  0  0  0  0  0
    7.6256   -1.6218    2.2147 C   0  0  0  0  0  0  0  0  0  0  0  0
    6.8537   -1.8562    1.0777 C   0  0  0  0  0  0  0  0  0  0  0  0
    8.8445   -0.8505    2.4867 C   0  0  0  0  0  0  0  0  0  0  0  0
    9.1098   -1.0183    3.7893 C   0  0  0  0  0  0  0  0  0  0  0  0
    8.1827   -1.8129    4.3523 O   0  0  0  0  0  0  0  0  0  0  0  0
    0.2786   -2.8253   -0.0151 O   0  0  0  0  0  0  0  0  0  0  0  0
   -0.9613    1.8858    0.0259 H   0  0  0  0  0  0  0  0  0  0  0  0
    1.1386    3.1633    0.0082 H   0  0  0  0  0  0  0  0  0  0  0  0
    3.3032    2.0080   -0.0199 H   0  0  0  0  0  0  0  0  0  0  0  0
   -0.9242   -0.5595    0.0083 H   0  0  0  0  0  0  0  0  0  0  0  0
    5.4905   -2.7047   -0.9584 H   0  0  0  0  0  0  0  0  0  0  0  0
    2.5749   -4.7034    0.8446 H   0  0  0  0  0  0  0  0  0  0  0  0
    2.5575   -4.6942   -0.9403 H   0  0  0  0  0  0  0  0  0  0  0  0
    8.3721   -6.2726   -0.1064 H   0  0  0  0  0  0  0  0  0  0  0  0
    4.8185   -8.6850   -0.1017 H   0  0  0  0  0  0  0  0  0  0  0  0
    5.8494  -10.2034   -0.1307 H   0  0  0  0  0  0  0  0  0  0  0  0
    7.2700  -12.2401   -0.1571 H   0  0  0  0  0  0  0  0  0  0  0  0
    9.7406  -11.9707   -0.1618 H   0  0  0  0  0  0  0  0  0  0  0  0
   10.7107   -9.7102   -0.1402 H   0  0  0  0  0  0  0  0  0  0  0  0
    4.5011   -3.8453    2.4295 H   0  0  0  0  0  0  0  0  0  0  0  0
    5.8457   -3.4574    4.4458 H   0  0  0  0  0  0  0  0  0  0  0  0
    7.1317   -1.4135    0.1327 H   0  0  0  0  0  0  0  0  0  0  0  0
    9.4131   -0.2653    1.7791 H   0  0  0  0  0  0  0  0  0  0  0  0
    9.9470   -0.5791    4.3114 H   0  0  0  0  0  0  0  0  0  0  0  0
    4.4504   -0.1236   -0.0431 H   0  0  0  0  0  0  0  0  0  0  0  0
  1  6  2  0  0  0  0
  1  2  1  0  0  0  0
  1 36  1  0  0  0  0
  2  3  2  0  0  0  0
  2 37  1  0  0  0  0
  3  4  1  0  0  0  0
  3 38  1  0  0  0  0
  4 10  1  0  0  0  0
  4  5  2  0  0  0  0
  5  6  1  0  0  0  0
  5  7  1  0  0  0  0
  6 39  1  0  0  0  0
  7  8  1  0  0  0  0
  7 35  2  0  0  0  0
  8 13  1  0  0  0  0
  8  9  2  0  0  0  0
  9 10  1  0  0  0  0
  9 11  1  0  0  0  0
 10 54  1  0  0  0  0
 11 12  1  0  0  0  0
 11 26  1  0  0  0  0
 11 40  1  0  0  0  0
 12 13  1  0  0  0  0
 12 14  1  0  0  0  0
 13 41  1  0  0  0  0
 13 42  1  0  0  0  0
 14 19  2  0  0  0  0
 14 15  1  0  0  0  0
 15 16  2  0  0  0  0
 16 17  1  0  0  0  0
 16 43  1  0  0  0  0
 17 18  2  0  0  0  0
 17 20  1  0  0  0  0
 18 19  1  0  0  0  0
 18 44  1  0  0  0  0
 20 25  2  0  0  0  0
 20 21  1  0  0  0  0
 21 22  2  0  0  0  0
 21 45  1  0  0  0  0
 22 23  1  0  0  0  0
 22 46  1  0  0  0  0
 23 24  2  0  0  0  0
 23 47  1  0  0  0  0
 24 25  1  0  0  0  0
 24 48  1  0  0  0  0
 26 31  2  0  0  0  0
 26 27  1  0  0  0  0
 27 28  2  0  0  0  0
 27 49  1  0  0  0  0
 28 29  1  0  0  0  0
 28 50  1  0  0  0  0
 29 34  1  0  0  0  0
 29 30  2  0  0  0  0
 30 31  1  0  0  0  0
 30 32  1  0  0  0  0
 31 51  1  0  0  0  0
 32 33  2  0  0  0  0
 32 52  1  0  0  0  0
 33 34  1  0  0  0  0
 33 53  1  0  0  0  0
M  END
$$$$
CHEMBL177881
  -OEChem-07121202283D

 54 60  0     1  0  0  0  0  0999 V2000
   -0.0165    1.3628    0.0095 C   0  0  0  0  0  0  0  0  0  0  0  0
    1.1698    2.0838    0.0021 C   0  0  0  0  0  0  0  0  0  0  0  0
    2.3862    1.4376   -0.0135 C   0  0  0  0  0  0  0  0  0  0  0  0
    2.4284    0.0458   -0.0214 C   0  0  0  0  0  0  0  0  0  0  0  0
    1.2231   -0.6777   -0.0133 C   0  0  0  0  0  0  0  0  0  0  0  0
    0.0021   -0.0041    0.0020 C   0  0  0  0  0  0  0  0  0  0  0  0
    1.2934   -2.1480   -0.0219 C   0  0  0  0  0  0  0  0  0  0  0  0
    2.5744   -2.7535   -0.0380 C   0  0  0  0  0  0  0  0  0  0  0  0
    3.6874   -1.9921   -0.0449 C   0  0  0  0  0  0  0  0  0  0  0  0
    3.6240   -0.6315   -0.0374 N   0  0  0  0  0  0  0  0  0  0  0  0
    4.9010   -2.8944   -0.0614 C   0  0  1  0  0  0  0  0  0  0  0  0
    4.4244   -4.2808   -0.0638 N   0  0  0  0  0  0  0  0  0  0  0  0
    2.9595   -4.2121   -0.0492 C   0  0  0  0  0  0  0  0  0  0  0  0
    5.2010   -5.4247   -0.0782 C   0  0  0  0  0  0  0  0  0  0  0  0
    6.5213   -5.3069   -0.0860 N   0  0  0  0  0  0  0  0  0  0  0  0
    7.2971   -6.3759   -0.0997 C   0  0  0  0  0  0  0  0  0  0  0  0
    6.7067   -7.6428   -0.1059 C   0  0  0  0  0  0  0  0  0  0  0  0
    5.3114   -7.7240   -0.0973 C   0  0  0  0  0  0  0  0  0  0  0  0
    4.6042   -6.6084   -0.0783 N   0  0  0  0  0  0  0  0  0  0  0  0
    7.5394   -8.8695   -0.1218 C   0  0  0  0  0  0  0  0  0  0  0  0
    6.9262  -10.1212   -0.1335 C   0  0  0  0  0  0  0  0  0  0  0  0
    7.7165  -11.2568   -0.1482 C   0  0  0  0  0  0  0  0  0  0  0  0
    9.0963  -11.1040   -0.1508 C   0  0  0  0  0  0  0  0  0  0  0  0
    9.6376   -9.8324   -0.1386 C   0  0  0  0  0  0  0  0  0  0  0  0
    8.8622   -8.7668   -0.1302 N   0  0  0  0  0  0  0  0  0  0  0  0
    5.7160   -2.6321   -1.3016 C   0  0  0  0  0  0  0  0  0  0  0  0
    5.3267   -3.1867   -2.5123 C   0  0  0  0  0  0  0  0  0  0  0  0
    6.0587   -2.9592   -3.6580 C   0  0  0  0  0  0  0  0  0  0  0  0
    7.1984   -2.1664   -3.6037 C   0  0  0  0  0  0  0  0  0  0  0  0
    7.5871   -1.6073   -2.3748 C   0  0  0  0  0  0  0  0  0  0  0  0
    6.8312   -1.8444   -1.2276 C   0  0  0  0  0  0  0  0  0  0  0  0
    8.8061   -0.8414   -2.6606 C   0  0  0  0  0  0  0  0  0  0  0  0
    9.0432   -0.9918   -3.9708 C   0  0  0  0  0  0  0  0  0  0  0  0
    8.0984   -1.7707   -4.5261 O   0  0  0  0  0  0  0  0  0  0  0  0
    0.2786   -2.8253   -0.0151 O   0  0  0  0  0  0  0  0  0  0  0  0
   -0.9613    1.8858    0.0259 H   0  0  0  0  0  0  0  0  0  0  0  0
    1.1386    3.1633    0.0082 H   0  0  0  0  0  0  0  0  0  0  0  0
    3.3032    2.0080   -0.0199 H   0  0  0  0  0  0  0  0  0  0  0  0
   -0.9242   -0.5595    0.0083 H   0  0  0  0  0  0  0  0  0  0  0  0
    5.5079   -2.7138    0.8259 H   0  0  0  0  0  0  0  0  0  0  0  0
    2.5749   -4.7034    0.8446 H   0  0  0  0  0  0  0  0  0  0  0  0
    2.5575   -4.6942   -0.9403 H   0  0  0  0  0  0  0  0  0  0  0  0
    8.3721   -6.2726   -0.1064 H   0  0  0  0  0  0  0  0  0  0  0  0
    4.8185   -8.6850   -0.1017 H   0  0  0  0  0  0  0  0  0  0  0  0
    5.8494  -10.2034   -0.1307 H   0  0  0  0  0  0  0  0  0  0  0  0
    7.2700  -12.2401   -0.1571 H   0  0  0  0  0  0  0  0  0  0  0  0
    9.7406  -11.9707   -0.1618 H   0  0  0  0  0  0  0  0  0  0  0  0
   10.7107   -9.7102   -0.1402 H   0  0  0  0  0  0  0  0  0  0  0  0
    4.4412   -3.8034   -2.5575 H   0  0  0  0  0  0  0  0  0  0  0  0
    5.7473   -3.3963   -4.5952 H   0  0  0  0  0  0  0  0  0  0  0  0
    7.1277   -1.4113   -0.2837 H   0  0  0  0  0  0  0  0  0  0  0  0
    9.3939   -0.2712   -1.9565 H   0  0  0  0  0  0  0  0  0  0  0  0
    9.8729   -0.5512   -4.5036 H   0  0  0  0  0  0  0  0  0  0  0  0
    4.4504   -0.1236   -0.0431 H   0  0  0  0  0  0  0  0  0  0  0  0
  1  6  2  0  0  0  0
  1  2  1  0  0  0  0
  1 36  1  0  0  0  0
  2  3  2  0  0  0  0
  2 37  1  0  0  0  0
  3  4  1  0  0  0  0
  3 38  1  0  0  0  0
  4 10  1  0  0  0  0
  4  5  2  0  0  0  0
  5  6  1  0  0  0  0
  5  7  1  0  0  0  0
  6 39  1  0  0  0  0
  7  8  1  0  0  0  0
  7 35  2  0  0  0  0
  8 13  1  0  0  0  0
  8  9  2  0  0  0  0
  9 10  1  0  0  0  0
  9 11  1  0  0  0  0
 10 54  1  0  0  0  0
 11 12  1  0  0  0  0
 11 26  1  0  0  0  0
 11 40  1  0  0  0  0
 12 13  1  0  0  0  0
 12 14  1  0  0  0  0
 13 41  1  0  0  0  0
 13 42  1  0  0  0  0
 14 19  2  0  0  0  0
 14 15  1  0  0  0  0
 15 16  2  0  0  0  0
 16 17  1  0  0  0  0
 16 43  1  0  0  0  0
 17 18  2  0  0  0  0
 17 20  1  0  0  0  0
 18 19  1  0  0  0  0
 18 44  1  0  0  0  0
 20 25  2  0  0  0  0
 20 21  1  0  0  0  0
 21 22  2  0  0  0  0
 21 45  1  0  0  0  0
 22 23  1  0  0  0  0
 22 46  1  0  0  0  0
 23 24  2  0  0  0  0
 23 47  1  0  0  0  0
 24 25  1  0  0  0  0
 24 48  1  0  0  0  0
 26 31  2  0  0  0  0
 26 27  1  0  0  0  0
 27 28  2  0  0  0  0
 27 49  1  0  0  0  0
 28 29  1  0  0  0  0
 28 50  1  0  0  0  0
 29 34  1  0  0  0  0
 29 30  2  0  0  0  0
 30 31  1  0  0  0  0
 30 32  1  0  0  0  0
 31 51  1  0  0  0  0
 32 33  2  0  0  0  0
 32 52  1  0  0  0  0
 33 34  1  0  0  0  0
 33 53  1  0  0  0  0
M  END
$$$$
CHEMBL178056
  -OEChem-07121202283D

 68 75  0     1  0  0  0  0  0999 V2000
    4.3120    3.5384   -0.7307 C   0  0  0  0  0  0  0  0  0  0  0  0
    5.1225    2.5390   -1.2356 C   0  0  0  0  0  0  0  0  0  0  0  0
    4.8417    1.2145   -0.9568 C   0  0  0  0  0  0  0  0  0  0  0  0
    3.7507    0.8895   -0.1726 C   0  0  0  0  0  0  0  0  0  0  0  0
    2.9407    1.8890    0.3331 C   0  0  0  0  0  0  0  0  0  0  0  0
    3.2206    3.2134    0.0531 C   0  0  0  0  0  0  0  0  0  0  0  0
    3.4440   -0.5545    0.1306 C   0  0  0  0  0  0  0  0  0  0  0  0
    4.1252   -0.9494    1.3660 N   0  0  0  0  0  0  0  0  0  0  0  0
    5.0191   -0.2117    2.0612 C   0  0  0  0  0  0  0  0  0  0  0  0
    5.4099   -0.8913    3.1053 N   0  0  0  0  0  0  0  0  0  0  0  0
    4.7915   -2.0781    3.1240 C   0  0  0  0  0  0  0  0  0  0  0  0
    3.9710   -2.1392    2.0404 C   0  0  0  0  0  0  0  0  0  0  0  0
    3.0890   -3.2642    1.6603 C   0  0  0  0  0  0  0  0  0  0  0  0
    2.8179   -4.2939    2.5713 C   0  0  0  0  0  0  0  0  0  0  0  0
    1.9887   -5.3225    2.1714 C   0  0  0  0  0  0  0  0  0  0  0  0
    1.4529   -5.3037    0.8864 C   0  0  0  0  0  0  0  0  0  0  0  0
    1.7291   -4.3158    0.0488 N   0  0  0  0  0  0  0  0  0  0  0  0
    2.5113   -3.3123    0.3932 C   0  0  0  0  0  0  0  0  0  0  0  0
    0.6171   -6.3361    0.4769 N   0  0  0  0  0  0  0  0  0  0  0  0
    0.0558   -6.5345   -0.8634 C   0  0  0  0  0  0  0  0  0  0  0  0
   -0.7853   -7.7862   -0.8217 C   0  0  0  0  0  0  0  0  0  0  0  0
   -1.5385   -8.4142   -1.8446 C   0  0  0  0  0  0  0  0  0  0  0  0
   -2.2713   -9.6456   -1.5077 C   0  0  0  0  0  0  0  0  0  0  0  0
   -3.0351  -10.3250   -2.4563 C   0  0  0  0  0  0  0  0  0  0  0  0
   -3.6991  -11.4655   -2.0994 C   0  0  0  0  0  0  0  0  0  0  0  0
   -3.6185  -11.9512   -0.8015 C   0  0  0  0  0  0  0  0  0  0  0  0
   -2.8700  -11.2948    0.1504 C   0  0  0  0  0  0  0  0  0  0  0  0
   -2.1851  -10.1317   -0.1914 C   0  0  0  0  0  0  0  0  0  0  0  0
   -1.4283   -9.4521    0.7327 N   0  0  0  0  0  0  0  0  0  0  0  0
   -0.7506   -8.3129    0.4193 C   0  0  0  0  0  0  0  0  0  0  0  0
    0.1259   -7.4476    1.2970 C   0  0  2  0  0  0  0  0  0  0  0  0
   -0.6813   -6.9127    2.4518 C   0  0  0  0  0  0  0  0  0  0  0  0
   -1.5448   -5.8495    2.2612 C   0  0  0  0  0  0  0  0  0  0  0  0
   -2.2891   -5.3589    3.3138 C   0  0  0  0  0  0  0  0  0  0  0  0
   -2.1769   -5.9306    4.5789 C   0  0  0  0  0  0  0  0  0  0  0  0
   -1.3009   -6.9931    4.7595 C   0  0  0  0  0  0  0  0  0  0  0  0
   -0.5654   -7.4874    3.7049 C   0  0  0  0  0  0  0  0  0  0  0  0
   -1.3732   -7.3850    6.2226 C   0  0  0  0  0  0  0  0  0  0  0  0
   -2.0795   -6.1587    6.8477 C   0  0  0  0  0  0  0  0  0  0  0  0
   -2.8168   -5.6167    5.7387 O   0  0  0  0  0  0  0  0  0  0  0  0
   -1.5787   -7.9479   -2.9713 O   0  0  0  0  0  0  0  0  0  0  0  0
    4.5339    4.5735   -0.9448 H   0  0  0  0  0  0  0  0  0  0  0  0
    5.9748    2.7929   -1.8483 H   0  0  0  0  0  0  0  0  0  0  0  0
    5.4745    0.4335   -1.3519 H   0  0  0  0  0  0  0  0  0  0  0  0
    2.0881    1.6351    0.9455 H   0  0  0  0  0  0  0  0  0  0  0  0
    2.5876    3.9943    0.4479 H   0  0  0  0  0  0  0  0  0  0  0  0
    2.3682   -0.6795    0.2530 H   0  0  0  0  0  0  0  0  0  0  0  0
    3.7912   -1.1801   -0.6917 H   0  0  0  0  0  0  0  0  0  0  0  0
    5.3560    0.7795    1.7958 H   0  0  0  0  0  0  0  0  0  0  0  0
    4.9186   -2.8494    3.8693 H   0  0  0  0  0  0  0  0  0  0  0  0
    3.2476   -4.2832    3.5621 H   0  0  0  0  0  0  0  0  0  0  0  0
    1.7584   -6.1327    2.8474 H   0  0  0  0  0  0  0  0  0  0  0  0
    2.7102   -2.5219   -0.3154 H   0  0  0  0  0  0  0  0  0  0  0  0
   -0.5647   -5.6805   -1.1349 H   0  0  0  0  0  0  0  0  0  0  0  0
    0.8613   -6.6539   -1.5880 H   0  0  0  0  0  0  0  0  0  0  0  0
   -3.1019   -9.9519   -3.4676 H   0  0  0  0  0  0  0  0  0  0  0  0
   -4.2912  -11.9924   -2.8330 H   0  0  0  0  0  0  0  0  0  0  0  0
   -4.1489  -12.8535   -0.5351 H   0  0  0  0  0  0  0  0  0  0  0  0
   -2.8139  -11.6811    1.1574 H   0  0  0  0  0  0  0  0  0  0  0  0
    0.9672   -8.0306    1.6716 H   0  0  0  0  0  0  0  0  0  0  0  0
   -1.6367   -5.4008    1.2832 H   0  0  0  0  0  0  0  0  0  0  0  0
   -2.9616   -4.5286    3.1563 H   0  0  0  0  0  0  0  0  0  0  0  0
    0.1044   -8.3208    3.8571 H   0  0  0  0  0  0  0  0  0  0  0  0
   -1.9698   -8.2875    6.3551 H   0  0  0  0  0  0  0  0  0  0  0  0
   -0.3751   -7.5147    6.6409 H   0  0  0  0  0  0  0  0  0  0  0  0
   -2.7543   -6.4672    7.6462 H   0  0  0  0  0  0  0  0  0  0  0  0
   -1.3490   -5.4379    7.2150 H   0  0  0  0  0  0  0  0  0  0  0  0
   -1.3750   -9.7952    1.6384 H   0  0  0  0  0  0  0  0  0  0  0  0
  1  6  2  0  0  0  0
  1  2  1  0  0  0  0
  1 42  1  0  0  0  0
  2  3  2  0  0  0  0
  2 43  1  0  0  0  0
  3  4  1  0  0  0  0
  3 44  1  0  0  0  0
  4  5  2  0  0  0  0
  4  7  1  0  0  0  0
  5  6  1  0  0  0  0
  5 45  1  0  0  0  0
  6 46  1  0  0  0  0
  7  8  1  0  0  0  0
  7 47  1  0  0  0  0
  7 48  1  0  0  0  0
  8 12  1  0  0  0  0
  8  9  1  0  0  0  0
  9 10  2  0  0  0  0
  9 49  1  0  0  0  0
 10 11  1  0  0  0  0
 11 12  2  0  0  0  0
 11 50  1  0  0  0  0
 12 13  1  0  0  0  0
 13 18  2  0  0  0  0
 13 14  1  0  0  0  0
 14 15  2  0  0  0  0
 14 51  1  0  0  0  0
 15 16  1  0  0  0  0
 15 52  1  0  0  0  0
 16 17  2  0  0  0  0
 16 19  1  0  0  0  0
 17 18  1  0  0  0  0
 18 53  1  0  0  0  0
 19 31  1  0  0  0  0
 19 20  1  0  0  0  0
 20 21  1  0  0  0  0
 20 54  1  0  0  0  0
 20 55  1  0  0  0  0
 21 30  2  0  0  0  0
 21 22  1  0  0  0  0
 22 23  1  0  0  0  0
 22 41  2  0  0  0  0
 23 28  2  0  0  0  0
 23 24  1  0  0  0  0
 24 25  2  0  0  0  0
 24 56  1  0  0  0  0
 25 26  1  0  0  0  0
 25 57  1  0  0  0  0
 26 27  2  0  0  0  0
 26 58  1  0  0  0  0
 27 28  1  0  0  0  0
 27 59  1  0  0  0  0
 28 29  1  0  0  0  0
 29 30  1  0  0  0  0
 29 68  1  0  0  0  0
 30 31  1  0  0  0  0
 31 32  1  0  0  0  0
 31 60  1  0  0  0  0
 32 37  2  0  0  0  0
 32 33  1  0  0  0  0
 33 34  2  0  0  0  0
 33 61  1  0  0  0  0
 34 35  1  0  0  0  0
 34 62  1  0  0  0  0
 35 40  1  0  0  0  0
 35 36  2  0  0  0  0
 36 37  1  0  0  0  0
 36 38  1  0  0  0  0
 37 63  1  0  0  0  0
 38 39  1  0  0  0  0
 38 64  1  0  0  0  0
 38 65  1  0  0  0  0
 39 40  1  0  0  0  0
 39 66  1  0  0  0  0
 39 67  1  0  0  0  0
M  END
$$$$
CHEMBL178056
  -OEChem-07121202283D

 68 75  0     1  0  0  0  0  0999 V2000
    4.3120    3.5384   -0.7307 C   0  0  0  0  0  0  0  0  0  0  0  0
    5.1225    2.5390   -1.2356 C   0  0  0  0  0  0  0  0  0  0  0  0
    4.8417    1.2145   -0.9568 C   0  0  0  0  0  0  0  0  0  0  0  0
    3.7507    0.8895   -0.1726 C   0  0  0  0  0  0  0  0  0  0  0  0
    2.9407    1.8890    0.3331 C   0  0  0  0  0  0  0  0  0  0  0  0
    3.2206    3.2134    0.0531 C   0  0  0  0  0  0  0  0  0  0  0  0
    3.4440   -0.5545    0.1306 C   0  0  0  0  0  0  0  0  0  0  0  0
    4.1252   -0.9494    1.3660 N   0  0  0  0  0  0  0  0  0  0  0  0
    5.0191   -0.2117    2.0612 C   0  0  0  0  0  0  0  0  0  0  0  0
    5.4099   -0.8913    3.1053 N   0  0  0  0  0  0  0  0  0  0  0  0
    4.7915   -2.0781    3.1240 C   0  0  0  0  0  0  0  0  0  0  0  0
    3.9710   -2.1392    2.0404 C   0  0  0  0  0  0  0  0  0  0  0  0
    3.0890   -3.2642    1.6603 C   0  0  0  0  0  0  0  0  0  0  0  0
    2.8179   -4.2939    2.5713 C   0  0  0  0  0  0  0  0  0  0  0  0
    1.9887   -5.3225    2.1714 C   0  0  0  0  0  0  0  0  0  0  0  0
    1.4529   -5.3037    0.8864 C   0  0  0  0  0  0  0  0  0  0  0  0
    1.7291   -4.3158    0.0488 N   0  0  0  0  0  0  0  0  0  0  0  0
    2.5113   -3.3123    0.3932 C   0  0  0  0  0  0  0  0  0  0  0  0
    0.6171   -6.3361    0.4769 N   0  0  0  0  0  0  0  0  0  0  0  0
    0.0558   -6.5345   -0.8634 C   0  0  0  0  0  0  0  0  0  0  0  0
   -0.7853   -7.7862   -0.8217 C   0  0  0  0  0  0  0  0  0  0  0  0
   -1.5385   -8.4142   -1.8446 C   0  0  0  0  0  0  0  0  0  0  0  0
   -2.2713   -9.6456   -1.5077 C   0  0  0  0  0  0  0  0  0  0  0  0
   -3.0351  -10.3250   -2.4563 C   0  0  0  0  0  0  0  0  0  0  0  0
   -3.6991  -11.4655   -2.0994 C   0  0  0  0  0  0  0  0  0  0  0  0
   -3.6185  -11.9512   -0.8015 C   0  0  0  0  0  0  0  0  0  0  0  0
   -2.8700  -11.2948    0.1504 C   0  0  0  0  0  0  0  0  0  0  0  0
   -2.1851  -10.1317   -0.1914 C   0  0  0  0  0  0  0  0  0  0  0  0
   -1.4283   -9.4521    0.7327 N   0  0  0  0  0  0  0  0  0  0  0  0
   -0.7506   -8.3129    0.4193 C   0  0  0  0  0  0  0  0  0  0  0  0
    0.1259   -7.4476    1.2970 C   0  0  1  0  0  0  0  0  0  0  0  0
    1.2891   -8.2536    1.8149 C   0  0  0  0  0  0  0  0  0  0  0  0
    2.3770   -8.5051    0.9990 C   0  0  0  0  0  0  0  0  0  0  0  0
    3.4461   -9.2386    1.4694 C   0  0  0  0  0  0  0  0  0  0  0  0
    3.4390   -9.7331    2.7715 C   0  0  0  0  0  0  0  0  0  0  0  0
    2.3376   -9.4802    3.5789 C   0  0  0  0  0  0  0  0  0  0  0  0
    1.2750   -8.7397    3.1101 C   0  0  0  0  0  0  0  0  0  0  0  0
    2.6000  -10.1536    4.9121 C   0  0  0  0  0  0  0  0  0  0  0  0
    3.7696  -11.1049    4.5654 C   0  0  0  0  0  0  0  0  0  0  0  0
    4.3800  -10.4597    3.4347 O   0  0  0  0  0  0  0  0  0  0  0  0
   -1.5787   -7.9479   -2.9713 O   0  0  0  0  0  0  0  0  0  0  0  0
    4.5339    4.5735   -0.9448 H   0  0  0  0  0  0  0  0  0  0  0  0
    5.9748    2.7929   -1.8483 H   0  0  0  0  0  0  0  0  0  0  0  0
    5.4745    0.4335   -1.3519 H   0  0  0  0  0  0  0  0  0  0  0  0
    2.0881    1.6351    0.9455 H   0  0  0  0  0  0  0  0  0  0  0  0
    2.5876    3.9943    0.4479 H   0  0  0  0  0  0  0  0  0  0  0  0
    2.3682   -0.6795    0.2530 H   0  0  0  0  0  0  0  0  0  0  0  0
    3.7912   -1.1801   -0.6917 H   0  0  0  0  0  0  0  0  0  0  0  0
    5.3560    0.7795    1.7958 H   0  0  0  0  0  0  0  0  0  0  0  0
    4.9186   -2.8494    3.8693 H   0  0  0  0  0  0  0  0  0  0  0  0
    3.2476   -4.2832    3.5621 H   0  0  0  0  0  0  0  0  0  0  0  0
    1.7584   -6.1327    2.8474 H   0  0  0  0  0  0  0  0  0  0  0  0
    2.7102   -2.5219   -0.3154 H   0  0  0  0  0  0  0  0  0  0  0  0
   -0.5647   -5.6805   -1.1349 H   0  0  0  0  0  0  0  0  0  0  0  0
    0.8613   -6.6539   -1.5880 H   0  0  0  0  0  0  0  0  0  0  0  0
   -3.1019   -9.9519   -3.4676 H   0  0  0  0  0  0  0  0  0  0  0  0
   -4.2912  -11.9924   -2.8330 H   0  0  0  0  0  0  0  0  0  0  0  0
   -4.1489  -12.8535   -0.5351 H   0  0  0  0  0  0  0  0  0  0  0  0
   -2.8139  -11.6811    1.1574 H   0  0  0  0  0  0  0  0  0  0  0  0
   -0.4580   -7.0607    2.1322 H   0  0  0  0  0  0  0  0  0  0  0  0
    2.3893   -8.1254   -0.0120 H   0  0  0  0  0  0  0  0  0  0  0  0
    4.2921   -9.4300    0.8259 H   0  0  0  0  0  0  0  0  0  0  0  0
    0.4294   -8.5418    3.7522 H   0  0  0  0  0  0  0  0  0  0  0  0
    2.9009   -9.4243    5.6643 H   0  0  0  0  0  0  0  0  0  0  0  0
    1.7264  -10.7150    5.2435 H   0  0  0  0  0  0  0  0  0  0  0  0
    4.4715  -11.1729    5.3965 H   0  0  0  0  0  0  0  0  0  0  0  0
    3.3966  -12.0919    4.2918 H   0  0  0  0  0  0  0  0  0  0  0  0
   -1.3750   -9.7952    1.6384 H   0  0  0  0  0  0  0  0  0  0  0  0
  1  6  2  0  0  0  0
  1  2  1  0  0  0  0
  1 42  1  0  0  0  0
  2  3  2  0  0  0  0
  2 43  1  0  0  0  0
  3  4  1  0  0  0  0
  3 44  1  0  0  0  0
  4  5  2  0  0  0  0
  4  7  1  0  0  0  0
  5  6  1  0  0  0  0
  5 45  1  0  0  0  0
  6 46  1  0  0  0  0
  7  8  1  0  0  0  0
  7 47  1  0  0  0  0
  7 48  1  0  0  0  0
  8 12  1  0  0  0  0
  8  9  1  0  0  0  0
  9 10  2  0  0  0  0
  9 49  1  0  0  0  0
 10 11  1  0  0  0  0
 11 12  2  0  0  0  0
 11 50  1  0  0  0  0
 12 13  1  0  0  0  0
 13 18  2  0  0  0  0
 13 14  1  0  0  0  0
 14 15  2  0  0  0  0
 14 51  1  0  0  0  0
 15 16  1  0  0  0  0
 15 52  1  0  0  0  0
 16 17  2  0  0  0  0
 16 19  1  0  0  0  0
 17 18  1  0  0  0  0
 18 53  1  0  0  0  0
 19 31  1  0  0  0  0
 19 20  1  0  0  0  0
 20 21  1  0  0  0  0
 20 54  1  0  0  0  0
 20 55  1  0  0  0  0
 21 30  2  0  0  0  0
 21 22  1  0  0  0  0
 22 23  1  0  0  0  0
 22 41  2  0  0  0  0
 23 28  2  0  0  0  0
 23 24  1  0  0  0  0
 24 25  2  0  0  0  0
 24 56  1  0  0  0  0
 25 26  1  0  0  0  0
 25 57  1  0  0  0  0
 26 27  2  0  0  0  0
 26 58  1  0  0  0  0
 27 28  1  0  0  0  0
 27 59  1  0  0  0  0
 28 29  1  0  0  0  0
 29 30  1  0  0  0  0
 29 68  1  0  0  0  0
 30 31  1  0  0  0  0
 31 32  1  0  0  0  0
 31 60  1  0  0  0  0
 32 37  2  0  0  0  0
 32 33  1  0  0  0  0
 33 34  2  0  0  0  0
 33 61  1  0  0  0  0
 34 35  1  0  0  0  0
 34 62  1  0  0  0  0
 35 40  1  0  0  0  0
 35 36  2  0  0  0  0
 36 37  1  0  0  0  0
 36 38  1  0  0  0  0
 37 63  1  0  0  0  0
 38 39  1  0  0  0  0
 38 64  1  0  0  0  0
 38 65  1  0  0  0  0
 39 40  1  0  0  0  0
 39 66  1  0  0  0  0
 39 67  1  0  0  0  0
M  END
$$$$
CHEMBL1085374
  -OEChem-07121202283D

 42 44  0     0  0  0  0  0  0999 V2000
   -0.0187    1.5258    0.0104 C   0  0  0  0  0  0  0  0  0  0  0  0
    0.0021   -0.0041    0.0020 C   0  0  0  0  0  0  0  0  0  0  0  0
   -1.4333   -0.5336    0.0129 C   0  0  0  0  0  0  0  0  0  0  0  0
   -1.4129   -2.0405    0.0046 C   0  0  0  0  0  0  0  0  0  0  0  0
   -1.4070   -2.7949   -1.0664 N   0  0  0  0  0  0  0  0  0  0  0  0
   -1.3873   -4.0820   -0.7117 C   0  0  0  0  0  0  0  0  0  0  0  0
   -1.3804   -4.1363    0.6504 C   0  0  0  0  0  0  0  0  0  0  0  0
   -1.3918   -2.8271    1.0959 N   0  0  0  0  0  0  0  0  0  0  0  0
   -1.3825   -2.5820    2.4611 C   0  0  0  0  0  0  0  0  0  0  0  0
   -1.3588   -3.6619    3.3576 C   0  0  0  0  0  0  0  0  0  0  0  0
   -1.3496   -3.3997    4.7356 C   0  0  0  0  0  0  0  0  0  0  0  0
   -1.3643   -2.0845    5.1543 C   0  0  0  0  0  0  0  0  0  0  0  0
   -1.3876   -1.0662    4.2069 C   0  0  0  0  0  0  0  0  0  0  0  0
   -1.3950   -1.3368    2.9137 N   0  0  0  0  0  0  0  0  0  0  0  0
   -1.4026    0.2271    4.6178 O   0  0  0  0  0  0  0  0  0  0  0  0
   -1.4263    1.2307    3.6008 C   0  0  0  0  0  0  0  0  0  0  0  0
   -1.3443   -4.9459    2.9123 N   0  0  0  0  0  0  0  0  0  0  0  0
   -1.3608   -5.2239    1.6268 C   0  0  0  0  0  0  0  0  0  0  0  0
   -1.3442   -6.5390    1.2008 N   0  5  0  0  0  0  0  0  0  0  0  0
   -1.3219   -7.7684    2.3099 S   0  0  0  0  0  0  0  0  0  0  0  0
   -0.0862   -7.6165    2.9949 O   0  0  0  0  0  0  0  0  0  0  0  0
   -2.5552   -7.6512    3.0060 O   0  0  0  0  0  0  0  0  0  0  0  0
   -1.3050   -9.2887    1.3204 C   0  0  0  0  0  0  0  0  0  0  0  0
   -1.3756   -5.2623   -1.6486 C   0  0  0  0  0  0  0  0  0  0  0  0
    1.0039    1.9031    0.0027 H   0  0  0  0  0  0  0  0  0  0  0  0
   -0.5459    1.8868   -0.8726 H   0  0  0  0  0  0  0  0  0  0  0  0
   -0.5289    1.8773    0.9072 H   0  0  0  0  0  0  0  0  0  0  0  0
    0.5123   -0.3556   -0.8948 H   0  0  0  0  0  0  0  0  0  0  0  0
    0.5293   -0.3651    0.8851 H   0  0  0  0  0  0  0  0  0  0  0  0
   -1.9435   -0.1821    0.9097 H   0  0  0  0  0  0  0  0  0  0  0  0
   -1.9605   -0.1726   -0.8702 H   0  0  0  0  0  0  0  0  0  0  0  0
   -1.3317   -4.2077    5.4520 H   0  0  0  0  0  0  0  0  0  0  0  0
   -1.3581   -1.8481    6.2081 H   0  0  0  0  0  0  0  0  0  0  0  0
   -2.3202    1.1074    2.9894 H   0  0  0  0  0  0  0  0  0  0  0  0
   -1.4363    2.2173    4.0641 H   0  0  0  0  0  0  0  0  0  0  0  0
   -0.5405    1.1331    2.9732 H   0  0  0  0  0  0  0  0  0  0  0  0
   -0.4176   -9.3004    0.6876 H   0  0  0  0  0  0  0  0  0  0  0  0
   -1.2899  -10.1537    1.9835 H   0  0  0  0  0  0  0  0  0  0  0  0
   -2.1973   -9.3255    0.6956 H   0  0  0  0  0  0  0  0  0  0  0  0
   -0.3452   -5.5328   -1.8794 H   0  0  0  0  0  0  0  0  0  0  0  0
   -1.8757   -6.1071   -1.1750 H   0  0  0  0  0  0  0  0  0  0  0  0
   -1.8974   -5.0007   -2.5691 H   0  0  0  0  0  0  0  0  0  0  0  0
  1  2  1  0  0  0  0
  1 25  1  0  0  0  0
  1 26  1  0  0  0  0
  1 27  1  0  0  0  0
  2  3  1  0  0  0  0
  2 28  1  0  0  0  0
  2 29  1  0  0  0  0
  3  4  1  0  0  0  0
  3 30  1  0  0  0  0
  3 31  1  0  0  0  0
  4  8  1  0  0  0  0
  4  5  2  0  0  0  0
  5  6  1  0  0  0  0
  6  7  2  0  0  0  0
  6 24  1  0  0  0  0
  7 18  1  0  0  0  0
  7  8  1  0  0  0  0
  8  9  1  0  0  0  0
  9 14  2  0  0  0  0
  9 10  1  0  0  0  0
 10 11  2  0  0  0  0
 10 17  1  0  0  0  0
 11 12  1  0  0  0  0
 11 32  1  0  0  0  0
 12 13  2  0  0  0  0
 12 33  1  0  0  0  0
 13 14  1  0  0  0  0
 13 15  1  0  0  0  0
 15 16  1  0  0  0  0
 16 34  1  0  0  0  0
 16 35  1  0  0  0  0
 16 36  1  0  0  0  0
 17 18  2  0  0  0  0
 18 19  1  0  0  0  0
 19 20  1  0  0  0  0
 20 21  2  0  0  0  0
 20 22  2  0  0  0  0
 20 23  1  0  0  0  0
 23 37  1  0  0  0  0
 23 38  1  0  0  0  0
 23 39  1  0  0  0  0
 24 40  1  0  0  0  0
 24 41  1  0  0  0  0
 24 42  1  0  0  0  0
M  CHG  1  19  -1
M  END
$$$$
CHEMBL8184
  -OEChem-07121202283D

 43 44  0     0  0  0  0  0  0999 V2000
    1.9745    2.2730    3.4812 C   0  0  0  0  0  0  0  0  0  0  0  0
    2.2302    0.8450    3.9676 C   0  0  0  0  0  0  0  0  0  0  0  0
    1.7031   -0.1489    2.9307 C   0  0  0  0  0  0  0  0  0  0  0  0
    1.9587   -1.5769    3.4171 C   0  0  0  0  0  0  0  0  0  0  0  0
    1.4540   -2.5286    2.4243 N   0  0  0  0  0  0  0  0  0  0  0  0
    1.6973   -3.8777    2.5763 C   0  0  0  0  0  0  0  0  0  0  0  0
    2.0793   -4.4121    3.8221 C   0  0  0  0  0  0  0  0  0  0  0  0
    2.3014   -3.8486    5.0998 C   0  0  0  0  0  0  0  0  0  0  0  0
    2.6441   -4.8026    5.9165 N   0  0  0  0  0  0  0  0  0  0  0  0
    2.6658   -6.0237    5.2329 N   0  0  0  0  0  0  0  0  0  0  0  0
    2.3169   -5.7937    3.9318 C   0  0  0  0  0  0  0  0  0  0  0  0
    2.1826   -6.5883    2.8714 N   0  0  0  0  0  0  0  0  0  0  0  0
    1.8286   -6.1280    1.6954 C   0  0  0  0  0  0  0  0  0  0  0  0
    1.5662   -4.7660    1.4937 C   0  0  0  0  0  0  0  0  0  0  0  0
    1.1650   -4.2721    0.1680 C   0  0  0  0  0  0  0  0  0  0  0  0
    1.0398   -3.0783   -0.0236 O   0  0  0  0  0  0  0  0  0  0  0  0
    0.9360   -5.1433   -0.8349 O   0  0  0  0  0  0  0  0  0  0  0  0
    0.5495   -4.5937   -2.0961 C   0  0  0  0  0  0  0  0  0  0  0  0
    0.3354   -5.7265   -3.1020 C   0  0  0  0  0  0  0  0  0  0  0  0
    3.0043   -7.3257    5.8130 C   0  0  0  0  0  0  0  0  0  0  0  0
    1.7348   -7.9909    6.3485 C   0  0  0  0  0  0  0  0  0  0  0  0
    0.9037    2.4241    3.3446 H   0  0  0  0  0  0  0  0  0  0  0  0
    2.3500    2.9811    4.2199 H   0  0  0  0  0  0  0  0  0  0  0  0
    2.4877    2.4310    2.5326 H   0  0  0  0  0  0  0  0  0  0  0  0
    3.3010    0.6940    4.1042 H   0  0  0  0  0  0  0  0  0  0  0  0
    1.7170    0.6870    4.9161 H   0  0  0  0  0  0  0  0  0  0  0  0
    0.6323    0.0021    2.7941 H   0  0  0  0  0  0  0  0  0  0  0  0
    2.2163    0.0091    1.9822 H   0  0  0  0  0  0  0  0  0  0  0  0
    3.0295   -1.7280    3.5537 H   0  0  0  0  0  0  0  0  0  0  0  0
    1.4455   -1.7349    4.3657 H   0  0  0  0  0  0  0  0  0  0  0  0
    0.9487   -2.2100    1.6600 H   0  0  0  0  0  0  0  0  0  0  0  0
    2.2035   -2.8037    5.3549 H   0  0  0  0  0  0  0  0  0  0  0  0
    1.7333   -6.8134    0.8662 H   0  0  0  0  0  0  0  0  0  0  0  0
   -0.3771   -4.0318   -1.9789 H   0  0  0  0  0  0  0  0  0  0  0  0
    1.3339   -3.9293   -2.4586 H   0  0  0  0  0  0  0  0  0  0  0  0
    1.2620   -6.2884   -3.2191 H   0  0  0  0  0  0  0  0  0  0  0  0
   -0.4490   -6.3908   -2.7394 H   0  0  0  0  0  0  0  0  0  0  0  0
    0.0406   -5.3073   -4.0640 H   0  0  0  0  0  0  0  0  0  0  0  0
    3.4513   -7.9595    5.0472 H   0  0  0  0  0  0  0  0  0  0  0  0
    3.7135   -7.1866    6.6290 H   0  0  0  0  0  0  0  0  0  0  0  0
    1.0256   -8.1300    5.5325 H   0  0  0  0  0  0  0  0  0  0  0  0
    1.9866   -8.9596    6.7801 H   0  0  0  0  0  0  0  0  0  0  0  0
    1.2878   -7.3571    7.1143 H   0  0  0  0  0  0  0  0  0  0  0  0
  1  2  1  0  0  0  0
  1 22  1  0  0  0  0
  1 23  1  0  0  0  0
  1 24  1  0  0  0  0
  2  3  1  0  0  0  0
  2 25  1  0  0  0  0
  2 26  1  0  0  0  0
  3  4  1  0  0  0  0
  3 27  1  0  0  0  0
  3 28  1  0  0  0  0
  4  5  1  0  0  0  0
  4 29  1  0  0  0  0
  4 30  1  0  0  0  0
  5  6  1  0  0  0  0
  5 31  1  0  0  0  0
  6 14  2  0  0  0  0
  6  7  1  0  0  0  0
  7 11  2  0  0  0  0
  7  8  1  0  0  0  0
  8  9  2  0  0  0  0
  8 32  1  0  0  0  0
  9 10  1  0  0  0  0
 10 11  1  0  0  0  0
 10 20  1  0  0  0  0
 11 12  1  0  0  0  0
 12 13  2  0  0  0  0
 13 14  1  0  0  0  0
 13 33  1  0  0  0  0
 14 15  1  0  0  0  0
 15 16  2  0  0  0  0
 15 17  1  0  0  0  0
 17 18  1  0  0  0  0
 18 19  1  0  0  0  0
 18 34  1  0  0  0  0
 18 35  1  0  0  0  0
 19 36  1  0  0  0  0
 19 37  1  0  0  0  0
 19 38  1  0  0  0  0
 20 21  1  0  0  0  0
 20 39  1  0  0  0  0
 20 40  1  0  0  0  0
 21 41  1  0  0  0  0
 21 42  1  0  0  0  0
 21 43  1  0  0  0  0
M  END
$$$$
CHEMBL7868
  -OEChem-07121202283D

 55 58  0     0  0  0  0  0  0999 V2000
    0.5362    0.7175    0.5192 C   0  0  0  0  0  0  0  0  0  0  0  0
    0.3126   -0.7799    0.2987 C   0  0  0  0  0  0  0  0  0  0  0  0
   -1.1245   -1.0518    0.2145 N   0  0  0  0  0  0  0  0  0  0  0  0
   -1.9454   -1.3513    1.2655 C   0  0  0  0  0  0  0  0  0  0  0  0
   -3.2315   -1.5338    0.7262 C   0  0  0  0  0  0  0  0  0  0  0  0
   -3.1301   -1.3308   -0.6696 C   0  0  0  0  0  0  0  0  0  0  0  0
   -1.8931   -1.0435   -0.9552 N   0  0  0  0  0  0  0  0  0  0  0  0
   -4.2976   -1.8563    1.5875 C   0  0  0  0  0  0  0  0  0  0  0  0
   -4.0176   -1.9808    2.9599 C   0  0  0  0  0  0  0  0  0  0  0  0
   -2.7056   -1.7812    3.4075 C   0  0  0  0  0  0  0  0  0  0  0  0
   -1.7375   -1.4816    2.5741 N   0  0  0  0  0  0  0  0  0  0  0  0
   -5.0886   -2.3157    3.9128 C   0  0  0  0  0  0  0  0  0  0  0  0
   -6.2026   -2.5851    3.5056 O   0  0  0  0  0  0  0  0  0  0  0  0
   -4.8347   -2.3238    5.2364 N   0  0  0  0  0  0  0  0  0  0  0  0
   -5.9005   -2.6571    6.1847 C   0  0  0  0  0  0  0  0  0  0  0  0
   -5.3601   -2.5946    7.5900 C   0  0  0  0  0  0  0  0  0  0  0  0
   -4.7985   -3.7141    8.1849 C   0  0  0  0  0  0  0  0  0  0  0  0
   -4.3132   -3.6190    9.4754 C   0  0  0  0  0  0  0  0  0  0  0  0
   -4.3804   -2.4815   10.1392 N   0  0  0  0  0  0  0  0  0  0  0  0
   -4.9076   -1.3971    9.6053 C   0  0  0  0  0  0  0  0  0  0  0  0
   -5.4075   -1.4149    8.3169 C   0  0  0  0  0  0  0  0  0  0  0  0
   -5.5750   -2.0435    1.1010 N   0  0  0  0  0  0  0  0  0  0  0  0
   -5.7810   -2.3538   -0.3159 C   0  0  0  0  0  0  0  0  0  0  0  0
   -7.2321   -2.6852   -0.5517 C   0  0  0  0  0  0  0  0  0  0  0  0
   -7.6696   -3.9916   -0.4343 C   0  0  0  0  0  0  0  0  0  0  0  0
   -8.9991   -4.2987   -0.6503 C   0  0  0  0  0  0  0  0  0  0  0  0
   -9.8962   -3.2951   -0.9849 C   0  0  0  0  0  0  0  0  0  0  0  0
   -9.4552   -1.9840   -1.1018 C   0  0  0  0  0  0  0  0  0  0  0  0
   -8.1246   -1.6815   -0.8795 C   0  0  0  0  0  0  0  0  0  0  0  0
  -10.5745   -0.7248   -1.5204 Cl  0  0  0  0  0  0  0  0  0  0  0  0
  -11.2047   -3.5949   -1.1983 O   0  0  0  0  0  0  0  0  0  0  0  0
  -11.5871   -4.9649   -1.0610 C   0  0  0  0  0  0  0  0  0  0  0  0
    1.6054    0.9198    0.5819 H   0  0  0  0  0  0  0  0  0  0  0  0
    0.1091    1.2753   -0.3142 H   0  0  0  0  0  0  0  0  0  0  0  0
    0.0534    1.0243    1.4471 H   0  0  0  0  0  0  0  0  0  0  0  0
    0.7954   -1.0866   -0.6291 H   0  0  0  0  0  0  0  0  0  0  0  0
    0.7396   -1.3376    1.1322 H   0  0  0  0  0  0  0  0  0  0  0  0
   -3.9426   -1.3978   -1.3780 H   0  0  0  0  0  0  0  0  0  0  0  0
   -2.4862   -1.8758    4.4607 H   0  0  0  0  0  0  0  0  0  0  0  0
   -3.9463   -2.1089    5.5611 H   0  0  0  0  0  0  0  0  0  0  0  0
   -6.7180   -1.9441    6.0777 H   0  0  0  0  0  0  0  0  0  0  0  0
   -6.2668   -3.6632    5.9806 H   0  0  0  0  0  0  0  0  0  0  0  0
   -4.7412   -4.6486    7.6466 H   0  0  0  0  0  0  0  0  0  0  0  0
   -3.8743   -4.4864    9.9459 H   0  0  0  0  0  0  0  0  0  0  0  0
   -4.9455   -0.4835   10.1799 H   0  0  0  0  0  0  0  0  0  0  0  0
   -5.8336   -0.5222    7.8833 H   0  0  0  0  0  0  0  0  0  0  0  0
   -6.3367   -1.9697    1.6970 H   0  0  0  0  0  0  0  0  0  0  0  0
   -5.5024   -1.4911   -0.9210 H   0  0  0  0  0  0  0  0  0  0  0  0
   -5.1635   -3.2077   -0.5944 H   0  0  0  0  0  0  0  0  0  0  0  0
   -6.9710   -4.7730   -0.1738 H   0  0  0  0  0  0  0  0  0  0  0  0
   -9.3397   -5.3195   -0.5590 H   0  0  0  0  0  0  0  0  0  0  0  0
   -7.7813   -0.6612   -0.9663 H   0  0  0  0  0  0  0  0  0  0  0  0
  -12.6545   -5.0656   -1.2574 H   0  0  0  0  0  0  0  0  0  0  0  0
  -11.0278   -5.5714   -1.7732 H   0  0  0  0  0  0  0  0  0  0  0  0
  -11.3708   -5.3026   -0.0475 H   0  0  0  0  0  0  0  0  0  0  0  0
  1  2  1  0  0  0  0
  1 33  1  0  0  0  0
  1 34  1  0  0  0  0
  1 35  1  0  0  0  0
  2  3  1  0  0  0  0
  2 36  1  0  0  0  0
  2 37  1  0  0  0  0
  3  7  1  0  0  0  0
  3  4  1  0  0  0  0
  4 11  2  0  0  0  0
  4  5  1  0  0  0  0
  5  6  1  0  0  0  0
  5  8  2  0  0  0  0
  6  7  2  0  0  0  0
  6 38  1  0  0  0  0
  8  9  1  0  0  0  0
  8 22  1  0  0  0  0
  9 10  2  0  0  0  0
  9 12  1  0  0  0  0
 10 11  1  0  0  0  0
 10 39  1  0  0  0  0
 12 13  2  0  0  0  0
 12 14  1  0  0  0  0
 14 15  1  0  0  0  0
 14 40  1  0  0  0  0
 15 16  1  0  0  0  0
 15 41  1  0  0  0  0
 15 42  1  0  0  0  0
 16 21  2  0  0  0  0
 16 17  1  0  0  0  0
 17 18  2  0  0  0  0
 17 43  1  0  0  0  0
 18 19  1  0  0  0  0
 18 44  1  0  0  0  0
 19 20  2  0  0  0  0
 20 21  1  0  0  0  0
 20 45  1  0  0  0  0
 21 46  1  0  0  0  0
 22 23  1  0  0  0  0
 22 47  1  0  0  0  0
 23 24  1  0  0  0  0
 23 48  1  0  0  0  0
 23 49  1  0  0  0  0
 24 29  2  0  0  0  0
 24 25  1  0  0  0  0
 25 26  2  0  0  0  0
 25 50  1  0  0  0  0
 26 27  1  0  0  0  0
 26 51  1  0  0  0  0
 27 28  2  0  0  0  0
 27 31  1  0  0  0  0
 28 29  1  0  0  0  0
 28 30  1  0  0  0  0
 29 52  1  0  0  0  0
 31 32  1  0  0  0  0
 32 53  1  0  0  0  0
 32 54  1  0  0  0  0
 32 55  1  0  0  0  0
M  END
$$$$
CHEMBL1094263
  -OEChem-07121202283D

 55 60  0     1  0  0  0  0  0999 V2000
   -1.0799    0.2249    0.7277 C   0  0  0  0  0  0  0  0  0  0  0  0
    0.0487    0.9250    0.3442 C   0  0  0  0  0  0  0  0  0  0  0  0
    1.2592    0.2694    0.2181 C   0  0  0  0  0  0  0  0  0  0  0  0
    1.3412   -1.0862    0.4759 C   0  0  0  0  0  0  0  0  0  0  0  0
    0.2128   -1.7862    0.8602 C   0  0  0  0  0  0  0  0  0  0  0  0
   -0.9980   -1.1309    0.9850 C   0  0  0  0  0  0  0  0  0  0  0  0
    2.6606   -1.8011    0.3375 C   0  0  0  0  0  0  0  0  0  0  0  0
    3.3729   -1.7636    1.6171 N   0  0  0  0  0  0  0  0  0  0  0  0
    4.2615   -0.6425    1.8736 C   0  0  0  0  0  0  0  0  0  0  0  0
    4.9716   -0.7761    3.1814 C   0  0  0  0  0  0  0  0  0  0  0  0
    5.7587    0.0938    3.4890 O   0  0  0  0  0  0  0  0  0  0  0  0
    4.7978   -1.7881    4.0341 N   0  0  0  0  0  0  0  0  0  0  0  0
    3.8199   -2.8539    3.8201 C   0  0  2  0  0  0  0  0  0  0  0  0
    4.3283   -3.8160    3.8841 H   0  0  0  0  0  0  0  0  0  0  0  0
    3.1646   -2.7559    2.4803 C   0  0  0  0  0  0  0  0  0  0  0  0
    2.3978   -3.6383    2.1572 O   0  0  0  0  0  0  0  0  0  0  0  0
    2.7505   -2.7851    4.9195 C   0  0  0  0  0  0  0  0  0  0  0  0
    3.4340   -2.6070    6.2510 C   0  0  0  0  0  0  0  0  0  0  0  0
    2.8948   -2.8379    7.5758 C   0  0  0  0  0  0  0  0  0  0  0  0
    1.6459   -3.2749    8.0279 C   0  0  0  0  0  0  0  0  0  0  0  0
    1.4811   -3.3830    9.3868 C   0  0  0  0  0  0  0  0  0  0  0  0
    2.4964   -3.0760   10.2779 C   0  0  0  0  0  0  0  0  0  0  0  0
    3.7410   -2.6397    9.8581 C   0  0  0  0  0  0  0  0  0  0  0  0
    3.9376   -2.5211    8.4838 C   0  0  0  0  0  0  0  0  0  0  0  0
    5.0157   -2.1292    7.7436 N   0  0  0  0  0  0  0  0  0  0  0  0
    5.8713   -1.8522    8.1072 H   0  0  0  0  0  0  0  0  0  0  0  0
    4.7075   -2.1862    6.4103 C   0  0  0  0  0  0  0  0  0  0  0  0
    5.6249   -1.8452    5.2581 C   0  0  1  0  0  0  0  0  0  0  0  0
    6.0949   -0.8774    5.4329 H   0  0  0  0  0  0  0  0  0  0  0  0
    6.6815   -2.9098    5.1127 C   0  0  0  0  0  0  0  0  0  0  0  0
    6.4449   -4.1876    5.5841 C   0  0  0  0  0  0  0  0  0  0  0  0
    7.4138   -5.1643    5.4503 C   0  0  0  0  0  0  0  0  0  0  0  0
    8.6200   -4.8638    4.8451 C   0  0  0  0  0  0  0  0  0  0  0  0
    8.8574   -3.5867    4.3735 C   0  0  0  0  0  0  0  0  0  0  0  0
    7.8860   -2.6101    4.5025 C   0  0  0  0  0  0  0  0  0  0  0  0
    8.2075   -0.8642    3.8511 Br  0  0  0  0  0  0  0  0  0  0  0  0
   -2.0246    0.7379    0.8305 H   0  0  0  0  0  0  0  0  0  0  0  0
   -0.0153    1.9841    0.1428 H   0  0  0  0  0  0  0  0  0  0  0  0
    2.1407    0.8163   -0.0822 H   0  0  0  0  0  0  0  0  0  0  0  0
    0.2768   -2.8453    1.0613 H   0  0  0  0  0  0  0  0  0  0  0  0
   -1.8796   -1.6778    1.2849 H   0  0  0  0  0  0  0  0  0  0  0  0
    2.4838   -2.8376    0.0502 H   0  0  0  0  0  0  0  0  0  0  0  0
    3.2616   -1.3095   -0.4275 H   0  0  0  0  0  0  0  0  0  0  0  0
    5.0000   -0.5858    1.0739 H   0  0  0  0  0  0  0  0  0  0  0  0
    3.6776    0.2779    1.8801 H   0  0  0  0  0  0  0  0  0  0  0  0
    2.0884   -1.9397    4.7327 H   0  0  0  0  0  0  0  0  0  0  0  0
    2.1731   -3.7096    4.9259 H   0  0  0  0  0  0  0  0  0  0  0  0
    0.8483   -3.5157    7.3407 H   0  0  0  0  0  0  0  0  0  0  0  0
    0.5297   -3.7177    9.7732 H   0  0  0  0  0  0  0  0  0  0  0  0
    2.3102   -3.1803   11.3366 H   0  0  0  0  0  0  0  0  0  0  0  0
    4.5237   -2.4022   10.5633 H   0  0  0  0  0  0  0  0  0  0  0  0
    5.5030   -4.4227    6.0573 H   0  0  0  0  0  0  0  0  0  0  0  0
    7.2287   -6.1624    5.8191 H   0  0  0  0  0  0  0  0  0  0  0  0
    9.3769   -5.6271    4.7411 H   0  0  0  0  0  0  0  0  0  0  0  0
    9.7997   -3.3520    3.9008 H   0  0  0  0  0  0  0  0  0  0  0  0
  1  6  2  0  0  0  0
  1  2  1  0  0  0  0
  1 37  1  0  0  0  0
  2  3  2  0  0  0  0
  2 38  1  0  0  0  0
  3  4  1  0  0  0  0
  3 39  1  0  0  0  0
  4  5  2  0  0  0  0
  4  7  1  0  0  0  0
  5  6  1  0  0  0  0
  5 40  1  0  0  0  0
  6 41  1  0  0  0  0
  7  8  1  0  0  0  0
  7 42  1  0  0  0  0
  7 43  1  0  0  0  0
  8 15  1  0  0  0  0
  8  9  1  0  0  0  0
  9 10  1  0  0  0  0
  9 44  1  0  0  0  0
  9 45  1  0  0  0  0
 10 11  2  0  0  0  0
 10 12  1  0  0  0  0
 12 28  1  0  0  0  0
 12 13  1  0  0  0  0
 13 14  1  0  0  0  0
 13 15  1  0  0  0  0
 13 17  1  0  0  0  0
 15 16  2  0  0  0  0
 17 18  1  0  0  0  0
 17 46  1  0  0  0  0
 17 47  1  0  0  0  0
 18 27  2  0  0  0  0
 18 19  1  0  0  0  0
 19 24  2  0  0  0  0
 19 20  1  0  0  0  0
 20 21  2  0  0  0  0
 20 48  1  0  0  0  0
 21 22  1  0  0  0  0
 21 49  1  0  0  0  0
 22 23  2  0  0  0  0
 22 50  1  0  0  0  0
 23 24  1  0  0  0  0
 23 51  1  0  0  0  0
 24 25  1  0  0  0  0
 25 26  1  0  0  0  0
 25 27  1  0  0  0  0
 27 28  1  0  0  0  0
 28 29  1  0  0  0  0
 28 30  1  0  0  0  0
 30 35  2  0  0  0  0
 30 31  1  0  0  0  0
 31 32  2  0  0  0  0
 31 52  1  0  0  0  0
 32 33  1  0  0  0  0
 32 53  1  0  0  0  0
 33 34  2  0  0  0  0
 33 54  1  0  0  0  0
 34 35  1  0  0  0  0
 34 55  1  0  0  0  0
 35 36  1  0  0  0  0
M  END
$$$$
CHEMBL54079
  -OEChem-07121202283D

 43 45  0     0  0  0  0  0  0999 V2000
   -0.0187    1.5258    0.0104 C   0  0  0  0  0  0  0  0  0  0  0  0
    0.0021   -0.0041    0.0020 C   0  0  0  0  0  0  0  0  0  0  0  0
    0.7421   -0.5109    1.2415 C   0  0  0  0  0  0  0  0  0  0  0  0
    0.7625   -2.0177    1.2333 C   0  0  0  0  0  0  0  0  0  0  0  0
   -0.2150   -2.8548    1.8056 C   0  0  0  0  0  0  0  0  0  0  0  0
    0.1902   -4.1752    1.5714 C   0  0  0  0  0  0  0  0  0  0  0  0
   -0.6206   -5.2316    2.0475 C   0  0  0  0  0  0  0  0  0  0  0  0
   -0.3025   -6.3939    1.8644 O   0  0  0  0  0  0  0  0  0  0  0  0
   -1.7563   -4.9210    2.7109 N   0  0  0  0  0  0  0  0  0  0  0  0
   -2.3282   -5.6289    3.0467 H   0  0  0  0  0  0  0  0  0  0  0  0
   -2.1032   -3.6124    2.9116 C   0  0  0  0  0  0  0  0  0  0  0  0
   -1.3622   -2.6230    2.4750 N   0  0  0  0  0  0  0  0  0  0  0  0
   -3.3503   -3.3058    3.6401 C   0  0  0  0  0  0  0  0  0  0  0  0
   -4.1559   -4.3406    4.1193 C   0  0  0  0  0  0  0  0  0  0  0  0
   -5.3192   -4.0479    4.7987 C   0  0  0  0  0  0  0  0  0  0  0  0
   -5.6932   -2.7309    5.0080 C   0  0  0  0  0  0  0  0  0  0  0  0
   -4.9050   -1.6981    4.5390 C   0  0  0  0  0  0  0  0  0  0  0  0
   -3.7289   -1.9750    3.8592 C   0  0  0  0  0  0  0  0  0  0  0  0
   -2.9506   -0.9610    3.4028 O   0  0  0  0  0  0  0  0  0  0  0  0
   -3.4004    0.3701    3.6636 C   0  0  0  0  0  0  0  0  0  0  0  0
   -2.4013    1.3700    3.0781 C   0  0  0  0  0  0  0  0  0  0  0  0
    1.3696   -4.1140    0.8826 N   0  0  0  0  0  0  0  0  0  0  0  0
    1.6863   -2.7630    0.6895 N   0  0  0  0  0  0  0  0  0  0  0  0
    2.1603   -5.2589    0.4238 C   0  0  0  0  0  0  0  0  0  0  0  0
    1.0039    1.9031    0.0027 H   0  0  0  0  0  0  0  0  0  0  0  0
   -0.5459    1.8868   -0.8726 H   0  0  0  0  0  0  0  0  0  0  0  0
   -0.5289    1.8773    0.9072 H   0  0  0  0  0  0  0  0  0  0  0  0
   -1.0205   -0.3814    0.0098 H   0  0  0  0  0  0  0  0  0  0  0  0
    0.5123   -0.3556   -0.8948 H   0  0  0  0  0  0  0  0  0  0  0  0
    1.7647   -0.1336    1.2338 H   0  0  0  0  0  0  0  0  0  0  0  0
    0.2319   -0.1594    2.1383 H   0  0  0  0  0  0  0  0  0  0  0  0
   -3.8683   -5.3690    3.9577 H   0  0  0  0  0  0  0  0  0  0  0  0
   -5.9417   -4.8489    5.1690 H   0  0  0  0  0  0  0  0  0  0  0  0
   -6.6064   -2.5102    5.5406 H   0  0  0  0  0  0  0  0  0  0  0  0
   -5.2033   -0.6736    4.7056 H   0  0  0  0  0  0  0  0  0  0  0  0
   -4.3769    0.5203    3.2032 H   0  0  0  0  0  0  0  0  0  0  0  0
   -3.4788    0.5227    4.7400 H   0  0  0  0  0  0  0  0  0  0  0  0
   -2.3229    1.2173    2.0017 H   0  0  0  0  0  0  0  0  0  0  0  0
   -2.7444    2.3853    3.2770 H   0  0  0  0  0  0  0  0  0  0  0  0
   -1.4248    1.2197    3.5385 H   0  0  0  0  0  0  0  0  0  0  0  0
    1.8382   -5.5450   -0.5774 H   0  0  0  0  0  0  0  0  0  0  0  0
    3.2154   -4.9863    0.4020 H   0  0  0  0  0  0  0  0  0  0  0  0
    2.0155   -6.0970    1.1055 H   0  0  0  0  0  0  0  0  0  0  0  0
  1  2  1  0  0  0  0
  1 25  1  0  0  0  0
  1 26  1  0  0  0  0
  1 27  1  0  0  0  0
  2  3  1  0  0  0  0
  2 28  1  0  0  0  0
  2 29  1  0  0  0  0
  3  4  1  0  0  0  0
  3 30  1  0  0  0  0
  3 31  1  0  0  0  0
  4 23  2  0  0  0  0
  4  5  1  0  0  0  0
  5 12  1  0  0  0  0
  5  6  2  0  0  0  0
  6  7  1  0  0  0  0
  6 22  1  0  0  0  0
  7  8  2  0  0  0  0
  7  9  1  0  0  0  0
  9 10  1  0  0  0  0
  9 11  1  0  0  0  0
 11 12  2  0  0  0  0
 11 13  1  0  0  0  0
 13 18  2  0  0  0  0
 13 14  1  0  0  0  0
 14 15  2  0  0  0  0
 14 32  1  0  0  0  0
 15 16  1  0  0  0  0
 15 33  1  0  0  0  0
 16 17  2  0  0  0  0
 16 34  1  0  0  0  0
 17 18  1  0  0  0  0
 17 35  1  0  0  0  0
 18 19  1  0  0  0  0
 19 20  1  0  0  0  0
 20 21  1  0  0  0  0
 20 36  1  0  0  0  0
 20 37  1  0  0  0  0
 21 38  1  0  0  0  0
 21 39  1  0  0  0  0
 21 40  1  0  0  0  0
 22 23  1  0  0  0  0
 22 24  1  0  0  0  0
 24 41  1  0  0  0  0
 24 42  1  0  0  0  0
 24 43  1  0  0  0  0
M  END
$$$$
CHEMBL54079
  -OEChem-07121202283D

 43 45  0     0  0  0  0  0  0999 V2000
   -0.0187    1.5258    0.0104 C   0  0  0  0  0  0  0  0  0  0  0  0
    0.0021   -0.0041    0.0020 C   0  0  0  0  0  0  0  0  0  0  0  0
    0.7421   -0.5109    1.2415 C   0  0  0  0  0  0  0  0  0  0  0  0
    0.7625   -2.0177    1.2333 C   0  0  0  0  0  0  0  0  0  0  0  0
   -0.2086   -2.8492    1.8019 C   0  0  0  0  0  0  0  0  0  0  0  0
    0.1884   -4.1649    1.5734 C   0  0  0  0  0  0  0  0  0  0  0  0
   -0.6644   -5.2444    2.0741 C   0  0  0  0  0  0  0  0  0  0  0  0
   -0.3574   -6.4128    1.8983 O   0  0  0  0  0  0  0  0  0  0  0  0
   -1.7907   -4.9239    2.7310 N   0  0  0  0  0  0  0  0  0  0  0  0
   -2.1366   -3.6698    2.9297 C   0  0  0  0  0  0  0  0  0  0  0  0
   -1.3868   -2.6245    2.4892 N   0  0  0  0  0  0  0  0  0  0  0  0
   -3.3872   -3.3868    3.6592 C   0  0  0  0  0  0  0  0  0  0  0  0
   -3.7870   -2.0670    3.8825 C   0  0  0  0  0  0  0  0  0  0  0  0
   -4.9566   -1.8094    4.5643 C   0  0  0  0  0  0  0  0  0  0  0  0
   -5.7385   -2.8538    5.0302 C   0  0  0  0  0  0  0  0  0  0  0  0
   -5.3547   -4.1630    4.8167 C   0  0  0  0  0  0  0  0  0  0  0  0
   -4.1840   -4.4406    4.1271 C   0  0  0  0  0  0  0  0  0  0  0  0
   -3.8087   -5.7265    3.9114 O   0  0  0  0  0  0  0  0  0  0  0  0
   -4.6710   -6.7476    4.4174 C   0  0  0  0  0  0  0  0  0  0  0  0
   -4.0875   -8.1212    4.0803 C   0  0  0  0  0  0  0  0  0  0  0  0
    1.3662   -4.1143    0.8861 N   0  0  0  0  0  0  0  0  0  0  0  0
    1.6881   -2.7642    0.6884 N   0  0  0  0  0  0  0  0  0  0  0  0
    2.1511   -5.2649    0.4317 C   0  0  0  0  0  0  0  0  0  0  0  0
    1.0039    1.9031    0.0027 H   0  0  0  0  0  0  0  0  0  0  0  0
   -0.5459    1.8868   -0.8726 H   0  0  0  0  0  0  0  0  0  0  0  0
   -0.5289    1.8773    0.9072 H   0  0  0  0  0  0  0  0  0  0  0  0
   -1.0205   -0.3814    0.0098 H   0  0  0  0  0  0  0  0  0  0  0  0
    0.5123   -0.3556   -0.8948 H   0  0  0  0  0  0  0  0  0  0  0  0
    1.7647   -0.1336    1.2338 H   0  0  0  0  0  0  0  0  0  0  0  0
    0.2319   -0.1594    2.1383 H   0  0  0  0  0  0  0  0  0  0  0  0
   -3.1802   -1.2497    3.5217 H   0  0  0  0  0  0  0  0  0  0  0  0
   -5.2649   -0.7888    4.7364 H   0  0  0  0  0  0  0  0  0  0  0  0
   -6.6534   -2.6429    5.5638 H   0  0  0  0  0  0  0  0  0  0  0  0
   -5.9692   -4.9718    5.1835 H   0  0  0  0  0  0  0  0  0  0  0  0
   -4.7590   -6.6457    5.4991 H   0  0  0  0  0  0  0  0  0  0  0  0
   -5.6564   -6.6497    3.9619 H   0  0  0  0  0  0  0  0  0  0  0  0
   -3.1021   -8.2191    4.5358 H   0  0  0  0  0  0  0  0  0  0  0  0
   -4.7452   -8.9000    4.4663 H   0  0  0  0  0  0  0  0  0  0  0  0
   -3.9995   -8.2230    2.9987 H   0  0  0  0  0  0  0  0  0  0  0  0
    1.8279   -5.5530   -0.5686 H   0  0  0  0  0  0  0  0  0  0  0  0
    3.2077   -4.9979    0.4094 H   0  0  0  0  0  0  0  0  0  0  0  0
    2.0017   -6.0998    1.1164 H   0  0  0  0  0  0  0  0  0  0  0  0
   -1.6804   -1.7156    2.6583 H   0  0  0  0  0  0  0  0  0  0  0  0
  1  2  1  0  0  0  0
  1 24  1  0  0  0  0
  1 25  1  0  0  0  0
  1 26  1  0  0  0  0
  2  3  1  0  0  0  0
  2 27  1  0  0  0  0
  2 28  1  0  0  0  0
  3  4  1  0  0  0  0
  3 29  1  0  0  0  0
  3 30  1  0  0  0  0
  4 22  2  0  0  0  0
  4  5  1  0  0  0  0
  5 11  1  0  0  0  0
  5  6  2  0  0  0  0
  6  7  1  0  0  0  0
  6 21  1  0  0  0  0
  7  8  2  0  0  0  0
  7  9  1  0  0  0  0
  9 10  2  0  0  0  0
 10 11  1  0  0  0  0
 10 12  1  0  0  0  0
 11 43  1  0  0  0  0
 12 17  2  0  0  0  0
 12 13  1  0  0  0  0
 13 14  2  0  0  0  0
 13 31  1  0  0  0  0
 14 15  1  0  0  0  0
 14 32  1  0  0  0  0
 15 16  2  0  0  0  0
 15 33  1  0  0  0  0
 16 17  1  0  0  0  0
 16 34  1  0  0  0  0
 17 18  1  0  0  0  0
 18 19  1  0  0  0  0
 19 20  1  0  0  0  0
 19 35  1  0  0  0  0
 19 36  1  0  0  0  0
 20 37  1  0  0  0  0
 20 38  1  0  0  0  0
 20 39  1  0  0  0  0
 21 22  1  0  0  0  0
 21 23  1  0  0  0  0
 23 40  1  0  0  0  0
 23 41  1  0  0  0  0
 23 42  1  0  0  0  0
M  END
$$$$
CHEMBL54079
  -OEChem-07121202283D

 42 44  0     0  0  0  0  0  0999 V2000
   -0.0187    1.5258    0.0104 C   0  0  0  0  0  0  0  0  0  0  0  0
    0.0021   -0.0041    0.0020 C   0  0  0  0  0  0  0  0  0  0  0  0
    0.7182   -0.4975   -1.2568 C   0  0  0  0  0  0  0  0  0  0  0  0
    0.7386   -2.0043   -1.2651 C   0  0  0  0  0  0  0  0  0  0  0  0
    1.7462   -2.8166   -0.7003 C   0  0  0  0  0  0  0  0  0  0  0  0
    1.3706   -4.1533   -0.9326 C   0  0  0  0  0  0  0  0  0  0  0  0
    2.2091   -5.1744   -0.4677 C   0  0  0  0  0  0  0  0  0  0  0  0
    1.8896   -6.4757   -0.6680 O   0  5  0  0  0  0  0  0  0  0  0  0
    3.3211   -4.8425    0.1714 N   0  0  0  0  0  0  0  0  0  0  0  0
    3.6455   -3.5680    0.3736 C   0  0  0  0  0  0  0  0  0  0  0  0
    2.8863   -2.5711   -0.0459 N   0  0  0  0  0  0  0  0  0  0  0  0
    4.9018   -3.2556    1.0949 C   0  0  0  0  0  0  0  0  0  0  0  0
    5.2652   -1.9301    1.3266 C   0  0  0  0  0  0  0  0  0  0  0  0
    6.4358   -1.6447    1.9985 C   0  0  0  0  0  0  0  0  0  0  0  0
    7.2520   -2.6702    2.4440 C   0  0  0  0  0  0  0  0  0  0  0  0
    6.9019   -3.9875    2.2200 C   0  0  0  0  0  0  0  0  0  0  0  0
    5.7257   -4.2895    1.5513 C   0  0  0  0  0  0  0  0  0  0  0  0
    5.3775   -5.5841    1.3354 O   0  0  0  0  0  0  0  0  0  0  0  0
    6.2678   -6.5865    1.8301 C   0  0  0  0  0  0  0  0  0  0  0  0
    5.7126   -7.9722    1.4947 C   0  0  0  0  0  0  0  0  0  0  0  0
    0.1819   -4.1166   -1.6111 N   0  0  0  0  0  0  0  0  0  0  0  0
   -0.1735   -2.7733   -1.7897 N   0  0  0  0  0  0  0  0  0  0  0  0
   -0.5863   -5.2783   -2.0657 C   0  0  0  0  0  0  0  0  0  0  0  0
    1.0039    1.9031    0.0027 H   0  0  0  0  0  0  0  0  0  0  0  0
   -0.5459    1.8868   -0.8726 H   0  0  0  0  0  0  0  0  0  0  0  0
   -0.5289    1.8773    0.9072 H   0  0  0  0  0  0  0  0  0  0  0  0
    0.5293   -0.3651    0.8851 H   0  0  0  0  0  0  0  0  0  0  0  0
   -1.0205   -0.3814    0.0098 H   0  0  0  0  0  0  0  0  0  0  0  0
    0.1910   -0.1364   -2.1398 H   0  0  0  0  0  0  0  0  0  0  0  0
    1.7408   -0.1202   -1.2645 H   0  0  0  0  0  0  0  0  0  0  0  0
    4.6312   -1.1273    0.9803 H   0  0  0  0  0  0  0  0  0  0  0  0
    6.7166   -0.6173    2.1773 H   0  0  0  0  0  0  0  0  0  0  0  0
    8.1671   -2.4391    2.9690 H   0  0  0  0  0  0  0  0  0  0  0  0
    7.5432   -4.7831    2.5697 H   0  0  0  0  0  0  0  0  0  0  0  0
    7.2462   -6.4649    1.3653 H   0  0  0  0  0  0  0  0  0  0  0  0
    6.3640   -6.4855    2.9111 H   0  0  0  0  0  0  0  0  0  0  0  0
    4.7342   -8.0938    1.9595 H   0  0  0  0  0  0  0  0  0  0  0  0
    5.6163   -8.0732    0.4137 H   0  0  0  0  0  0  0  0  0  0  0  0
    6.3916   -8.7368    1.8721 H   0  0  0  0  0  0  0  0  0  0  0  0
   -1.2865   -5.5786   -1.2862 H   0  0  0  0  0  0  0  0  0  0  0  0
   -1.1380   -5.0182   -2.9691 H   0  0  0  0  0  0  0  0  0  0  0  0
    0.0940   -6.1025   -2.2801 H   0  0  0  0  0  0  0  0  0  0  0  0
  1  2  1  0  0  0  0
  1 24  1  0  0  0  0
  1 25  1  0  0  0  0
  1 26  1  0  0  0  0
  2  3  1  0  0  0  0
  2 27  1  0  0  0  0
  2 28  1  0  0  0  0
  3  4  1  0  0  0  0
  3 29  1  0  0  0  0
  3 30  1  0  0  0  0
  4 22  2  0  0  0  0
  4  5  1  0  0  0  0
  5 11  2  0  0  0  0
  5  6  1  0  0  0  0
  6  7  2  0  0  0  0
  6 21  1  0  0  0  0
  7  8  1  0  0  0  0
  7  9  1  0  0  0  0
  9 10  2  0  0  0  0
 10 11  1  0  0  0  0
 10 12  1  0  0  0  0
 12 17  2  0  0  0  0
 12 13  1  0  0  0  0
 13 14  2  0  0  0  0
 13 31  1  0  0  0  0
 14 15  1  0  0  0  0
 14 32  1  0  0  0  0
 15 16  2  0  0  0  0
 15 33  1  0  0  0  0
 16 17  1  0  0  0  0
 16 34  1  0  0  0  0
 17 18  1  0  0  0  0
 18 19  1  0  0  0  0
 19 20  1  0  0  0  0
 19 35  1  0  0  0  0
 19 36  1  0  0  0  0
 20 37  1  0  0  0  0
 20 38  1  0  0  0  0
 20 39  1  0  0  0  0
 21 22  1  0  0  0  0
 21 23  1  0  0  0  0
 23 40  1  0  0  0  0
 23 41  1  0  0  0  0
 23 42  1  0  0  0  0
M  CHG  1   8  -1
M  END
$$$$
CHEMBL561088
  -OEChem-07121202283D

 60 63  0     0  0  0  0  0  0999 V2000
   -0.0187    1.5258    0.0104 C   0  0  0  0  0  0  0  0  0  0  0  0
    0.0021   -0.0041    0.0020 C   0  0  0  0  0  0  0  0  0  0  0  0
   -1.4333   -0.5336    0.0129 C   0  0  0  0  0  0  0  0  0  0  0  0
   -1.4139   -1.9625    0.0050 O   0  0  0  0  0  0  0  0  0  0  0  0
   -2.7113   -2.5614    0.0142 C   0  0  0  0  0  0  0  0  0  0  0  0
   -2.5698   -4.0848    0.0047 C   0  0  0  0  0  0  0  0  0  0  0  0
   -1.9315   -4.5238    1.2481 N   0  0  0  0  0  0  0  0  0  0  0  0
   -0.5569   -4.6252    1.3301 C   0  0  0  0  0  0  0  0  0  0  0  0
    0.0444   -5.0484    2.5313 C   0  0  0  0  0  0  0  0  0  0  0  0
    1.4444   -5.1456    2.5958 C   0  0  0  0  0  0  0  0  0  0  0  0
    2.1731   -4.8235    1.4832 C   0  0  0  0  0  0  0  0  0  0  0  0
    1.5136   -4.4105    0.3232 C   0  0  0  0  0  0  0  0  0  0  0  0
    0.1918   -4.3249    0.2798 N   0  0  0  0  0  0  0  0  0  0  0  0
    2.3061   -4.0617   -0.8804 C   0  0  0  0  0  0  0  0  0  0  0  0
    3.7017   -4.1464   -0.8708 C   0  0  0  0  0  0  0  0  0  0  0  0
    4.4003   -3.8122   -2.0131 C   0  0  0  0  0  0  0  0  0  0  0  0
    3.7689   -3.4179   -3.1020 N   0  0  0  0  0  0  0  0  0  0  0  0
    2.4542   -3.3244   -3.1531 C   0  0  0  0  0  0  0  0  0  0  0  0
    1.6780   -3.6447   -2.0579 C   0  0  0  0  0  0  0  0  0  0  0  0
   -0.7038   -5.3583    3.6080 N   0  0  0  0  0  0  0  0  0  0  0  0
   -2.0099   -5.2738    3.5665 C   0  0  0  0  0  0  0  0  0  0  0  0
   -2.6799   -4.8289    2.3298 C   0  0  0  0  0  0  0  0  0  0  0  0
   -3.8929   -4.7421    2.2838 O   0  0  0  0  0  0  0  0  0  0  0  0
   -2.7602   -5.5963    4.6827 N   0  0  0  0  0  0  0  0  0  0  0  0
   -2.0938   -6.0328    5.9122 C   0  0  0  0  0  0  0  0  0  0  0  0
   -3.1443   -6.3251    6.9855 C   0  0  0  0  0  0  0  0  0  0  0  0
   -3.8634   -5.0271    7.3656 C   0  0  0  0  0  0  0  0  0  0  0  0
   -4.8565   -5.3149    8.4946 C   0  0  0  0  0  0  0  0  0  0  0  0
   -4.1595   -5.8758    9.6088 O   0  0  0  0  0  0  0  0  0  0  0  0
   -3.5070   -7.1152    9.3251 C   0  0  0  0  0  0  0  0  0  0  0  0
   -2.4597   -6.8997    8.2294 C   0  0  0  0  0  0  0  0  0  0  0  0
    1.0039    1.9031    0.0027 H   0  0  0  0  0  0  0  0  0  0  0  0
   -0.5459    1.8868   -0.8726 H   0  0  0  0  0  0  0  0  0  0  0  0
   -0.5289    1.8773    0.9072 H   0  0  0  0  0  0  0  0  0  0  0  0
    0.5123   -0.3556   -0.8948 H   0  0  0  0  0  0  0  0  0  0  0  0
    0.5293   -0.3651    0.8851 H   0  0  0  0  0  0  0  0  0  0  0  0
   -1.9435   -0.1821    0.9097 H   0  0  0  0  0  0  0  0  0  0  0  0
   -1.9605   -0.1726   -0.8702 H   0  0  0  0  0  0  0  0  0  0  0  0
   -3.2480   -2.2520    0.9110 H   0  0  0  0  0  0  0  0  0  0  0  0
   -3.2650   -2.2424   -0.8688 H   0  0  0  0  0  0  0  0  0  0  0  0
   -3.5564   -4.5409   -0.0779 H   0  0  0  0  0  0  0  0  0  0  0  0
   -1.9574   -4.3876   -0.8447 H   0  0  0  0  0  0  0  0  0  0  0  0
    1.9345   -5.4668    3.5030 H   0  0  0  0  0  0  0  0  0  0  0  0
    3.2510   -4.8878    1.5020 H   0  0  0  0  0  0  0  0  0  0  0  0
    4.2252   -4.4681    0.0174 H   0  0  0  0  0  0  0  0  0  0  0  0
    5.4785   -3.8741   -2.0153 H   0  0  0  0  0  0  0  0  0  0  0  0
    1.9785   -2.9967   -4.0657 H   0  0  0  0  0  0  0  0  0  0  0  0
    0.6018   -3.5702   -2.1082 H   0  0  0  0  0  0  0  0  0  0  0  0
   -3.7277   -5.5336    4.6514 H   0  0  0  0  0  0  0  0  0  0  0  0
   -1.5177   -6.9362    5.7121 H   0  0  0  0  0  0  0  0  0  0  0  0
   -1.4258   -5.2459    6.2623 H   0  0  0  0  0  0  0  0  0  0  0  0
   -3.8671   -7.0450    6.6017 H   0  0  0  0  0  0  0  0  0  0  0  0
   -3.1331   -4.2911    7.7017 H   0  0  0  0  0  0  0  0  0  0  0  0
   -4.3993   -4.6403    6.4988 H   0  0  0  0  0  0  0  0  0  0  0  0
   -5.3404   -4.3866    8.7984 H   0  0  0  0  0  0  0  0  0  0  0  0
   -5.6102   -6.0203    8.1447 H   0  0  0  0  0  0  0  0  0  0  0  0
   -3.0188   -7.4838   10.2272 H   0  0  0  0  0  0  0  0  0  0  0  0
   -4.2431   -7.8442    8.9861 H   0  0  0  0  0  0  0  0  0  0  0  0
   -1.9918   -7.8522    7.9805 H   0  0  0  0  0  0  0  0  0  0  0  0
   -1.7010   -6.2015    8.5830 H   0  0  0  0  0  0  0  0  0  0  0  0
  1  2  1  0  0  0  0
  1 32  1  0  0  0  0
  1 33  1  0  0  0  0
  1 34  1  0  0  0  0
  2  3  1  0  0  0  0
  2 35  1  0  0  0  0
  2 36  1  0  0  0  0
  3  4  1  0  0  0  0
  3 37  1  0  0  0  0
  3 38  1  0  0  0  0
  4  5  1  0  0  0  0
  5  6  1  0  0  0  0
  5 39  1  0  0  0  0
  5 40  1  0  0  0  0
  6  7  1  0  0  0  0
  6 41  1  0  0  0  0
  6 42  1  0  0  0  0
  7 22  1  0  0  0  0
  7  8  1  0  0  0  0
  8 13  2  0  0  0  0
  8  9  1  0  0  0  0
  9 10  2  0  0  0  0
  9 20  1  0  0  0  0
 10 11  1  0  0  0  0
 10 43  1  0  0  0  0
 11 12  2  0  0  0  0
 11 44  1  0  0  0  0
 12 13  1  0  0  0  0
 12 14  1  0  0  0  0
 14 19  2  0  0  0  0
 14 15  1  0  0  0  0
 15 16  2  0  0  0  0
 15 45  1  0  0  0  0
 16 17  1  0  0  0  0
 16 46  1  0  0  0  0
 17 18  2  0  0  0  0
 18 19  1  0  0  0  0
 18 47  1  0  0  0  0
 19 48  1  0  0  0  0
 20 21  2  0  0  0  0
 21 22  1  0  0  0  0
 21 24  1  0  0  0  0
 22 23  2  0  0  0  0
 24 25  1  0  0  0  0
 24 49  1  0  0  0  0
 25 26  1  0  0  0  0
 25 50  1  0  0  0  0
 25 51  1  0  0  0  0
 26 31  1  0  0  0  0
 26 27  1  0  0  0  0
 26 52  1  0  0  0  0
 27 28  1  0  0  0  0
 27 53  1  0  0  0  0
 27 54  1  0  0  0  0
 28 29  1  0  0  0  0
 28 55  1  0  0  0  0
 28 56  1  0  0  0  0
 29 30  1  0  0  0  0
 30 31  1  0  0  0  0
 30 57  1  0  0  0  0
 30 58  1  0  0  0  0
 31 59  1  0  0  0  0
 31 60  1  0  0  0  0
M  END
$$$$
CHEMBL182895
  -OEChem-07121202283D

 37 39  0     0  0  0  0  0  0999 V2000
   -0.0187    1.5258    0.0104 C   0  0  0  0  0  0  0  0  0  0  0  0
    0.0021   -0.0041    0.0020 C   0  0  0  0  0  0  0  0  0  0  0  0
    0.6932   -0.4774    1.1597 O   0  0  0  0  0  0  0  0  0  0  0  0
    0.8019   -1.8229    1.3055 C   0  0  0  0  0  0  0  0  0  0  0  0
    0.2607   -2.6720    0.3530 C   0  0  0  0  0  0  0  0  0  0  0  0
    0.3719   -4.0410    0.5025 C   0  0  0  0  0  0  0  0  0  0  0  0
    1.0226   -4.5743    1.6022 C   0  0  0  0  0  0  0  0  0  0  0  0
    1.5660   -3.7431    2.5590 C   0  0  0  0  0  0  0  0  0  0  0  0
    1.4661   -2.3584    2.4159 C   0  0  0  0  0  0  0  0  0  0  0  0
    2.0524   -1.4623    3.4339 C   0  0  0  0  0  0  0  0  0  0  0  0
    2.7057   -2.0209    4.5138 N   0  0  0  0  0  0  0  0  0  0  0  0
    3.2548   -1.2329    5.4655 C   0  0  0  0  0  0  0  0  0  0  0  0
    3.1365    0.2167    5.3160 C   0  0  0  0  0  0  0  0  0  0  0  0
    3.5490    1.3019    6.0487 C   0  0  0  0  0  0  0  0  0  0  0  0
    3.1429    2.3959    5.4029 N   0  0  0  0  0  0  0  0  0  0  0  0
    2.5012    2.0547    4.3102 C   0  0  0  0  0  0  0  0  0  0  0  0
    2.4700    0.7180    4.2110 N   0  0  0  0  0  0  0  0  0  0  0  0
    1.9383   -0.1749    3.2762 N   0  0  0  0  0  0  0  0  0  0  0  0
    1.8932    3.0157    3.3213 C   0  0  0  0  0  0  0  0  0  0  0  0
    4.3187    1.2640    7.3438 C   0  0  0  0  0  0  0  0  0  0  0  0
    3.8321   -1.7176    6.4216 O   0  0  0  0  0  0  0  0  0  0  0  0
    1.0039    1.9031    0.0027 H   0  0  0  0  0  0  0  0  0  0  0  0
   -0.5459    1.8868   -0.8726 H   0  0  0  0  0  0  0  0  0  0  0  0
   -0.5289    1.8773    0.9072 H   0  0  0  0  0  0  0  0  0  0  0  0
   -1.0205   -0.3814    0.0098 H   0  0  0  0  0  0  0  0  0  0  0  0
    0.5123   -0.3556   -0.8948 H   0  0  0  0  0  0  0  0  0  0  0  0
   -0.2488   -2.2630   -0.5069 H   0  0  0  0  0  0  0  0  0  0  0  0
   -0.0514   -4.6987   -0.2422 H   0  0  0  0  0  0  0  0  0  0  0  0
    1.1045   -5.6456    1.7113 H   0  0  0  0  0  0  0  0  0  0  0  0
    2.0725   -4.1630    3.4155 H   0  0  0  0  0  0  0  0  0  0  0  0
    2.6299    3.2660    2.5579 H   0  0  0  0  0  0  0  0  0  0  0  0
    1.0256    2.5527    2.8511 H   0  0  0  0  0  0  0  0  0  0  0  0
    1.5843    3.9234    3.8396 H   0  0  0  0  0  0  0  0  0  0  0  0
    5.3878    1.2732    7.1314 H   0  0  0  0  0  0  0  0  0  0  0  0
    4.0603    2.1353    7.9456 H   0  0  0  0  0  0  0  0  0  0  0  0
    4.0648    0.3562    7.8909 H   0  0  0  0  0  0  0  0  0  0  0  0
    2.7710   -2.9856    4.5907 H   0  0  0  0  0  0  0  0  0  0  0  0
  1  2  1  0  0  0  0
  1 22  1  0  0  0  0
  1 23  1  0  0  0  0
  1 24  1  0  0  0  0
  2  3  1  0  0  0  0
  2 25  1  0  0  0  0
  2 26  1  0  0  0  0
  3  4  1  0  0  0  0
  4  9  2  0  0  0  0
  4  5  1  0  0  0  0
  5  6  2  0  0  0  0
  5 27  1  0  0  0  0
  6  7  1  0  0  0  0
  6 28  1  0  0  0  0
  7  8  2  0  0  0  0
  7 29  1  0  0  0  0
  8  9  1  0  0  0  0
  8 30  1  0  0  0  0
  9 10  1  0  0  0  0
 10 18  2  0  0  0  0
 10 11  1  0  0  0  0
 11 12  1  0  0  0  0
 11 37  1  0  0  0  0
 12 13  1  0  0  0  0
 12 21  2  0  0  0  0
 13 17  1  0  0  0  0
 13 14  2  0  0  0  0
 14 15  1  0  0  0  0
 14 20  1  0  0  0  0
 15 16  2  0  0  0  0
 16 17  1  0  0  0  0
 16 19  1  0  0  0  0
 17 18  1  0  0  0  0
 19 31  1  0  0  0  0
 19 32  1  0  0  0  0
 19 33  1  0  0  0  0
 20 34  1  0  0  0  0
 20 35  1  0  0  0  0
 20 36  1  0  0  0  0
M  END
$$$$
CHEMBL182895
  -OEChem-07121202283D

 36 38  0     0  0  0  0  0  0999 V2000
   -0.0187    1.5258    0.0104 C   0  0  0  0  0  0  0  0  0  0  0  0
    0.0021   -0.0041    0.0020 C   0  0  0  0  0  0  0  0  0  0  0  0
    0.6932   -0.4774    1.1597 O   0  0  0  0  0  0  0  0  0  0  0  0
    0.8019   -1.8232    1.3056 C   0  0  0  0  0  0  0  0  0  0  0  0
    0.2606   -2.6722    0.3528 C   0  0  0  0  0  0  0  0  0  0  0  0
    0.3714   -4.0410    0.5027 C   0  0  0  0  0  0  0  0  0  0  0  0
    1.0221   -4.5732    1.6024 C   0  0  0  0  0  0  0  0  0  0  0  0
    1.5657   -3.7405    2.5586 C   0  0  0  0  0  0  0  0  0  0  0  0
    1.4654   -2.3577    2.4146 C   0  0  0  0  0  0  0  0  0  0  0  0
    2.0532   -1.4583    3.4354 C   0  0  0  0  0  0  0  0  0  0  0  0
    2.6888   -1.9967    4.4862 N   0  0  0  0  0  0  0  0  0  0  0  0
    3.2318   -1.2460    5.4253 C   0  0  0  0  0  0  0  0  0  0  0  0
    3.1423    0.1593    5.3229 C   0  0  0  0  0  0  0  0  0  0  0  0
    3.5743    1.2203    6.0875 C   0  0  0  0  0  0  0  0  0  0  0  0
    3.1862    2.3373    5.4735 N   0  0  0  0  0  0  0  0  0  0  0  0
    2.5378    2.0383    4.3717 C   0  0  0  0  0  0  0  0  0  0  0  0
    2.4839    0.7068    4.2341 N   0  0  0  0  0  0  0  0  0  0  0  0
    1.9397   -0.1590    3.2791 N   0  0  0  0  0  0  0  0  0  0  0  0
    1.9458    3.0376    3.4115 C   0  0  0  0  0  0  0  0  0  0  0  0
    4.3435    1.1337    7.3805 C   0  0  0  0  0  0  0  0  0  0  0  0
    3.8669   -1.8163    6.4751 O   0  5  0  0  0  0  0  0  0  0  0  0
    1.0039    1.9031    0.0027 H   0  0  0  0  0  0  0  0  0  0  0  0
   -0.5459    1.8868   -0.8726 H   0  0  0  0  0  0  0  0  0  0  0  0
   -0.5289    1.8773    0.9072 H   0  0  0  0  0  0  0  0  0  0  0  0
   -1.0205   -0.3814    0.0098 H   0  0  0  0  0  0  0  0  0  0  0  0
    0.5123   -0.3556   -0.8948 H   0  0  0  0  0  0  0  0  0  0  0  0
   -0.2486   -2.2631   -0.5073 H   0  0  0  0  0  0  0  0  0  0  0  0
   -0.0520   -4.6991   -0.2417 H   0  0  0  0  0  0  0  0  0  0  0  0
    1.1043   -5.6445    1.7125 H   0  0  0  0  0  0  0  0  0  0  0  0
    2.0721   -4.1595    3.4156 H   0  0  0  0  0  0  0  0  0  0  0  0
    2.6862    3.2970    2.6548 H   0  0  0  0  0  0  0  0  0  0  0  0
    1.0702    2.6032    2.9291 H   0  0  0  0  0  0  0  0  0  0  0  0
    1.6528    3.9352    3.9560 H   0  0  0  0  0  0  0  0  0  0  0  0
    5.4125    1.1310    7.1678 H   0  0  0  0  0  0  0  0  0  0  0  0
    4.0998    1.9922    8.0064 H   0  0  0  0  0  0  0  0  0  0  0  0
    4.0745    0.2155    7.9025 H   0  0  0  0  0  0  0  0  0  0  0  0
  1  2  1  0  0  0  0
  1 22  1  0  0  0  0
  1 23  1  0  0  0  0
  1 24  1  0  0  0  0
  2  3  1  0  0  0  0
  2 25  1  0  0  0  0
  2 26  1  0  0  0  0
  3  4  1  0  0  0  0
  4  9  2  0  0  0  0
  4  5  1  0  0  0  0
  5  6  2  0  0  0  0
  5 27  1  0  0  0  0
  6  7  1  0  0  0  0
  6 28  1  0  0  0  0
  7  8  2  0  0  0  0
  7 29  1  0  0  0  0
  8  9  1  0  0  0  0
  8 30  1  0  0  0  0
  9 10  1  0  0  0  0
 10 18  2  0  0  0  0
 10 11  1  0  0  0  0
 11 12  2  0  0  0  0
 12 13  1  0  0  0  0
 12 21  1  0  0  0  0
 13 17  1  0  0  0  0
 13 14  2  0  0  0  0
 14 15  1  0  0  0  0
 14 20  1  0  0  0  0
 15 16  2  0  0  0  0
 16 17  1  0  0  0  0
 16 19  1  0  0  0  0
 17 18  1  0  0  0  0
 19 31  1  0  0  0  0
 19 32  1  0  0  0  0
 19 33  1  0  0  0  0
 20 34  1  0  0  0  0
 20 35  1  0  0  0  0
 20 36  1  0  0  0  0
M  CHG  1  21  -1
M  END
$$$$
CHEMBL43795
  -OEChem-07121202283D

 36 38  0     0  0  0  0  0  0999 V2000
   -0.0187    1.5258    0.0104 C   0  0  0  0  0  0  0  0  0  0  0  0
    0.0021   -0.0041    0.0020 C   0  0  0  0  0  0  0  0  0  0  0  0
    0.7182   -0.4975   -1.2568 C   0  0  0  0  0  0  0  0  0  0  0  0
    0.7376   -1.9263   -1.2646 O   0  0  0  0  0  0  0  0  0  0  0  0
    1.3404   -2.5285   -2.3208 C   0  0  0  0  0  0  0  0  0  0  0  0
    1.9080   -1.7630   -3.3280 C   0  0  0  0  0  0  0  0  0  0  0  0
    2.5212   -2.3771   -4.4023 C   0  0  0  0  0  0  0  0  0  0  0  0
    2.5748   -3.7589   -4.4825 C   0  0  0  0  0  0  0  0  0  0  0  0
    2.0162   -4.5351   -3.4900 C   0  0  0  0  0  0  0  0  0  0  0  0
    1.3972   -3.9267   -2.3955 C   0  0  0  0  0  0  0  0  0  0  0  0
    0.8021   -4.7516   -1.3266 C   0  0  0  0  0  0  0  0  0  0  0  0
    0.2208   -4.1448   -0.3197 N   0  0  0  0  0  0  0  0  0  0  0  0
   -0.3408   -4.8358    0.6858 C   0  0  0  0  0  0  0  0  0  0  0  0
   -0.9678   -4.2117    1.7716 C   0  0  0  0  0  0  0  0  0  0  0  0
   -1.5136   -4.9931    2.7509 C   0  0  0  0  0  0  0  0  0  0  0  0
   -1.4644   -6.3144    2.6984 N   0  0  0  0  0  0  0  0  0  0  0  0
   -0.8896   -6.9628    1.7047 C   0  0  0  0  0  0  0  0  0  0  0  0
   -0.3062   -6.2518    0.6612 C   0  0  0  0  0  0  0  0  0  0  0  0
    0.3504   -6.9095   -0.4759 C   0  0  0  0  0  0  0  0  0  0  0  0
    0.8778   -6.1126   -1.4355 N   0  0  0  0  0  0  0  0  0  0  0  0
    0.4136   -8.1224   -0.5553 O   0  0  0  0  0  0  0  0  0  0  0  0
    1.0039    1.9031    0.0027 H   0  0  0  0  0  0  0  0  0  0  0  0
   -0.5459    1.8868   -0.8726 H   0  0  0  0  0  0  0  0  0  0  0  0
   -0.5289    1.8773    0.9072 H   0  0  0  0  0  0  0  0  0  0  0  0
    0.5293   -0.3651    0.8851 H   0  0  0  0  0  0  0  0  0  0  0  0
   -1.0205   -0.3814    0.0098 H   0  0  0  0  0  0  0  0  0  0  0  0
    0.1910   -0.1364   -2.1398 H   0  0  0  0  0  0  0  0  0  0  0  0
    1.7408   -0.1202   -1.2645 H   0  0  0  0  0  0  0  0  0  0  0  0
    1.8701   -0.6851   -3.2725 H   0  0  0  0  0  0  0  0  0  0  0  0
    2.9611   -1.7764   -5.1847 H   0  0  0  0  0  0  0  0  0  0  0  0
    3.0562   -4.2302   -5.3267 H   0  0  0  0  0  0  0  0  0  0  0  0
    2.0603   -5.6121   -3.5565 H   0  0  0  0  0  0  0  0  0  0  0  0
   -1.0185   -3.1347    1.8339 H   0  0  0  0  0  0  0  0  0  0  0  0
   -1.9984   -4.5189    3.5915 H   0  0  0  0  0  0  0  0  0  0  0  0
   -0.8714   -8.0426    1.7011 H   0  0  0  0  0  0  0  0  0  0  0  0
    1.3164   -6.5103   -2.2039 H   0  0  0  0  0  0  0  0  0  0  0  0
  1  2  1  0  0  0  0
  1 22  1  0  0  0  0
  1 23  1  0  0  0  0
  1 24  1  0  0  0  0
  2  3  1  0  0  0  0
  2 25  1  0  0  0  0
  2 26  1  0  0  0  0
  3  4  1  0  0  0  0
  3 27  1  0  0  0  0
  3 28  1  0  0  0  0
  4  5  1  0  0  0  0
  5 10  2  0  0  0  0
  5  6  1  0  0  0  0
  6  7  2  0  0  0  0
  6 29  1  0  0  0  0
  7  8  1  0  0  0  0
  7 30  1  0  0  0  0
  8  9  2  0  0  0  0
  8 31  1  0  0  0  0
  9 10  1  0  0  0  0
  9 32  1  0  0  0  0
 10 11  1  0  0  0  0
 11 20  1  0  0  0  0
 11 12  2  0  0  0  0
 12 13  1  0  0  0  0
 13 18  2  0  0  0  0
 13 14  1  0  0  0  0
 14 15  2  0  0  0  0
 14 33  1  0  0  0  0
 15 16  1  0  0  0  0
 15 34  1  0  0  0  0
 16 17  2  0  0  0  0
 17 18  1  0  0  0  0
 17 35  1  0  0  0  0
 18 19  1  0  0  0  0
 19 20  1  0  0  0  0
 19 21  2  0  0  0  0
 20 36  1  0  0  0  0
M  END
$$$$
CHEMBL43795
  -OEChem-07121202283D

 36 38  0     0  0  0  0  0  0999 V2000
   -0.0187    1.5258    0.0104 C   0  0  0  0  0  0  0  0  0  0  0  0
    0.0021   -0.0041    0.0020 C   0  0  0  0  0  0  0  0  0  0  0  0
   -1.4333   -0.5336    0.0129 C   0  0  0  0  0  0  0  0  0  0  0  0
   -1.4139   -1.9625    0.0050 O   0  0  0  0  0  0  0  0  0  0  0  0
   -2.6142   -2.5948    0.0131 C   0  0  0  0  0  0  0  0  0  0  0  0
   -3.7893   -1.8585    0.0225 C   0  0  0  0  0  0  0  0  0  0  0  0
   -5.0103   -2.5034    0.0308 C   0  0  0  0  0  0  0  0  0  0  0  0
   -5.0722   -3.8875    0.0302 C   0  0  0  0  0  0  0  0  0  0  0  0
   -3.9149   -4.6352    0.0208 C   0  0  0  0  0  0  0  0  0  0  0  0
   -2.6723   -3.9956    0.0061 C   0  0  0  0  0  0  0  0  0  0  0  0
   -1.4300   -4.7892   -0.0101 C   0  0  0  0  0  0  0  0  0  0  0  0
   -1.5268   -6.1486   -0.0220 N   0  0  0  0  0  0  0  0  0  0  0  0
   -0.3891   -6.9228   -0.0378 C   0  0  0  0  0  0  0  0  0  0  0  0
   -0.4223   -8.3129   -0.0510 C   0  0  0  0  0  0  0  0  0  0  0  0
    0.7728   -9.0014   -0.0668 C   0  0  0  0  0  0  0  0  0  0  0  0
    1.9344   -8.3695   -0.0694 N   0  0  0  0  0  0  0  0  0  0  0  0
    2.0223   -7.0539   -0.0573 C   0  0  0  0  0  0  0  0  0  0  0  0
    0.8659   -6.2824   -0.0411 C   0  0  0  0  0  0  0  0  0  0  0  0
    0.8929   -4.8094   -0.0271 C   0  0  0  0  0  0  0  0  0  0  0  0
   -0.2784   -4.1527   -0.0177 N   0  0  0  0  0  0  0  0  0  0  0  0
    1.9505   -4.2027   -0.0289 O   0  0  0  0  0  0  0  0  0  0  0  0
    1.0039    1.9031    0.0027 H   0  0  0  0  0  0  0  0  0  0  0  0
   -0.5459    1.8868   -0.8726 H   0  0  0  0  0  0  0  0  0  0  0  0
   -0.5289    1.8773    0.9072 H   0  0  0  0  0  0  0  0  0  0  0  0
    0.5123   -0.3556   -0.8948 H   0  0  0  0  0  0  0  0  0  0  0  0
    0.5293   -0.3651    0.8851 H   0  0  0  0  0  0  0  0  0  0  0  0
   -1.9435   -0.1821    0.9097 H   0  0  0  0  0  0  0  0  0  0  0  0
   -1.9605   -0.1726   -0.8702 H   0  0  0  0  0  0  0  0  0  0  0  0
   -3.7495   -0.7793    0.0238 H   0  0  0  0  0  0  0  0  0  0  0  0
   -5.9225   -1.9253    0.0381 H   0  0  0  0  0  0  0  0  0  0  0  0
   -6.0319   -4.3827    0.0374 H   0  0  0  0  0  0  0  0  0  0  0  0
   -3.9680   -5.7139    0.0208 H   0  0  0  0  0  0  0  0  0  0  0  0
   -1.3638   -8.8422   -0.0487 H   0  0  0  0  0  0  0  0  0  0  0  0
    0.7596  -10.0812   -0.0768 H   0  0  0  0  0  0  0  0  0  0  0  0
    2.9911   -6.5765   -0.0597 H   0  0  0  0  0  0  0  0  0  0  0  0
   -2.3998   -6.5714   -0.0191 H   0  0  0  0  0  0  0  0  0  0  0  0
  1  2  1  0  0  0  0
  1 22  1  0  0  0  0
  1 23  1  0  0  0  0
  1 24  1  0  0  0  0
  2  3  1  0  0  0  0
  2 25  1  0  0  0  0
  2 26  1  0  0  0  0
  3  4  1  0  0  0  0
  3 27  1  0  0  0  0
  3 28  1  0  0  0  0
  4  5  1  0  0  0  0
  5 10  2  0  0  0  0
  5  6  1  0  0  0  0
  6  7  2  0  0  0  0
  6 29  1  0  0  0  0
  7  8  1  0  0  0  0
  7 30  1  0  0  0  0
  8  9  2  0  0  0  0
  8 31  1  0  0  0  0
  9 10  1  0  0  0  0
  9 32  1  0  0  0  0
 10 11  1  0  0  0  0
 11 20  2  0  0  0  0
 11 12  1  0  0  0  0
 12 13  1  0  0  0  0
 12 36  1  0  0  0  0
 13 18  2  0  0  0  0
 13 14  1  0  0  0  0
 14 15  2  0  0  0  0
 14 33  1  0  0  0  0
 15 16  1  0  0  0  0
 15 34  1  0  0  0  0
 16 17  2  0  0  0  0
 17 18  1  0  0  0  0
 17 35  1  0  0  0  0
 18 19  1  0  0  0  0
 19 20  1  0  0  0  0
 19 21  2  0  0  0  0
M  END
$$$$
CHEMBL43795
  -OEChem-07121202283D

 35 37  0     0  0  0  0  0  0999 V2000
   -0.0187    1.5258    0.0104 C   0  0  0  0  0  0  0  0  0  0  0  0
    0.0021   -0.0041    0.0020 C   0  0  0  0  0  0  0  0  0  0  0  0
    0.7182   -0.4975   -1.2568 C   0  0  0  0  0  0  0  0  0  0  0  0
    0.7376   -1.9263   -1.2646 O   0  0  0  0  0  0  0  0  0  0  0  0
    1.3407   -2.5287   -2.3213 C   0  0  0  0  0  0  0  0  0  0  0  0
    1.9081   -1.7630   -3.3282 C   0  0  0  0  0  0  0  0  0  0  0  0
    2.5217   -2.3772   -4.4024 C   0  0  0  0  0  0  0  0  0  0  0  0
    2.5747   -3.7585   -4.4814 C   0  0  0  0  0  0  0  0  0  0  0  0
    2.0144   -4.5335   -3.4878 C   0  0  0  0  0  0  0  0  0  0  0  0
    1.3972   -3.9248   -2.3955 C   0  0  0  0  0  0  0  0  0  0  0  0
    0.7992   -4.7518   -1.3224 C   0  0  0  0  0  0  0  0  0  0  0  0
    0.8747   -6.0684   -1.4206 N   0  0  0  0  0  0  0  0  0  0  0  0
    0.3465   -6.8442   -0.4709 C   0  0  0  0  0  0  0  0  0  0  0  0
    0.3947   -8.2471   -0.5177 C   0  0  0  0  0  0  0  0  0  0  0  0
   -0.1728   -8.9541    0.5002 C   0  0  0  0  0  0  0  0  0  0  0  0
   -0.7644   -8.3557    1.5243 N   0  0  0  0  0  0  0  0  0  0  0  0
   -0.8459   -7.0474    1.6323 C   0  0  0  0  0  0  0  0  0  0  0  0
   -0.2938   -6.2332    0.6396 C   0  0  0  0  0  0  0  0  0  0  0  0
   -0.3448   -4.8212    0.6914 C   0  0  0  0  0  0  0  0  0  0  0  0
    0.2123   -4.1385   -0.2958 N   0  0  0  0  0  0  0  0  0  0  0  0
   -0.9422   -4.1854    1.7248 O   0  5  0  0  0  0  0  0  0  0  0  0
    1.0039    1.9031    0.0027 H   0  0  0  0  0  0  0  0  0  0  0  0
   -0.5459    1.8868   -0.8726 H   0  0  0  0  0  0  0  0  0  0  0  0
   -0.5289    1.8773    0.9072 H   0  0  0  0  0  0  0  0  0  0  0  0
    0.5293   -0.3651    0.8851 H   0  0  0  0  0  0  0  0  0  0  0  0
   -1.0205   -0.3814    0.0098 H   0  0  0  0  0  0  0  0  0  0  0  0
    0.1910   -0.1364   -2.1398 H   0  0  0  0  0  0  0  0  0  0  0  0
    1.7408   -0.1202   -1.2645 H   0  0  0  0  0  0  0  0  0  0  0  0
    1.8698   -0.6851   -3.2728 H   0  0  0  0  0  0  0  0  0  0  0  0
    2.9622   -1.7770   -5.1848 H   0  0  0  0  0  0  0  0  0  0  0  0
    3.0565   -4.2309   -5.3248 H   0  0  0  0  0  0  0  0  0  0  0  0
    2.0575   -5.6107   -3.5533 H   0  0  0  0  0  0  0  0  0  0  0  0
    0.8712   -8.7551   -1.3432 H   0  0  0  0  0  0  0  0  0  0  0  0
   -0.1397  -10.0332    0.4713 H   0  0  0  0  0  0  0  0  0  0  0  0
   -1.3381   -6.6038    2.4851 H   0  0  0  0  0  0  0  0  0  0  0  0
  1  2  1  0  0  0  0
  1 22  1  0  0  0  0
  1 23  1  0  0  0  0
  1 24  1  0  0  0  0
  2  3  1  0  0  0  0
  2 25  1  0  0  0  0
  2 26  1  0  0  0  0
  3  4  1  0  0  0  0
  3 27  1  0  0  0  0
  3 28  1  0  0  0  0
  4  5  1  0  0  0  0
  5 10  2  0  0  0  0
  5  6  1  0  0  0  0
  6  7  2  0  0  0  0
  6 29  1  0  0  0  0
  7  8  1  0  0  0  0
  7 30  1  0  0  0  0
  8  9  2  0  0  0  0
  8 31  1  0  0  0  0
  9 10  1  0  0  0  0
  9 32  1  0  0  0  0
 10 11  1  0  0  0  0
 11 20  2  0  0  0  0
 11 12  1  0  0  0  0
 12 13  2  0  0  0  0
 13 18  1  0  0  0  0
 13 14  1  0  0  0  0
 14 15  2  0  0  0  0
 14 33  1  0  0  0  0
 15 16  1  0  0  0  0
 15 34  1  0  0  0  0
 16 17  2  0  0  0  0
 17 18  1  0  0  0  0
 17 35  1  0  0  0  0
 18 19  2  0  0  0  0
 19 20  1  0  0  0  0
 19 21  1  0  0  0  0
M  CHG  1  21  -1
M  END
$$$$
CHEMBL336815
  -OEChem-07121202283D

 65 71  0     1  0  0  0  0  0999 V2000
   -0.0173    1.4248    0.0099 C   0  0  0  0  0  0  0  0  0  0  0  0
    0.0021   -0.0041    0.0020 O   0  0  0  0  0  0  0  0  0  0  0  0
    0.6262   -0.6187    1.0421 C   0  0  0  0  0  0  0  0  0  0  0  0
    1.2016    0.1397    2.0501 C   0  0  0  0  0  0  0  0  0  0  0  0
    1.8359   -0.4804    3.1074 C   0  0  0  0  0  0  0  0  0  0  0  0
    1.8989   -1.8714    3.1640 C   0  0  0  0  0  0  0  0  0  0  0  0
    1.3205   -2.6348    2.1517 C   0  0  0  0  0  0  0  0  0  0  0  0
    0.6815   -2.0090    1.0962 C   0  0  0  0  0  0  0  0  0  0  0  0
    0.1120   -2.7513    0.1092 O   0  0  0  0  0  0  0  0  0  0  0  0
    0.2067   -4.1721    0.2293 C   0  0  0  0  0  0  0  0  0  0  0  0
    2.5811   -2.5386    4.3001 C   0  0  0  0  0  0  0  0  0  0  0  0
    2.6590   -3.9319    4.3704 C   0  0  0  0  0  0  0  0  0  0  0  0
    3.2754   -4.4889    5.3980 N   0  0  0  0  0  0  0  0  0  0  0  0
    3.8146   -3.7443    6.3525 C   0  0  0  0  0  0  0  0  0  0  0  0
    3.7608   -2.4205    6.3212 N   0  0  0  0  0  0  0  0  0  0  0  0
    3.1669   -1.7895    5.3237 C   0  0  0  0  0  0  0  0  0  0  0  0
    4.4513   -4.3666    7.4120 N   0  0  0  0  0  0  0  0  0  0  0  0
    4.6155   -5.8098    7.6146 C   0  0  0  0  0  0  0  0  0  0  0  0
    5.3737   -6.0030    8.9044 C   0  0  0  0  0  0  0  0  0  0  0  0
    5.7885   -7.1944    9.5497 C   0  0  0  0  0  0  0  0  0  0  0  0
    6.5251   -7.0739   10.8184 C   0  0  0  0  0  0  0  0  0  0  0  0
    6.9690   -8.1969   11.5161 C   0  0  0  0  0  0  0  0  0  0  0  0
    7.6499   -8.0382   12.6908 C   0  0  0  0  0  0  0  0  0  0  0  0
    7.9022   -6.7690   13.1933 C   0  0  0  0  0  0  0  0  0  0  0  0
    7.4719   -5.6470   12.5199 C   0  0  0  0  0  0  0  0  0  0  0  0
    6.7770   -5.7855   11.3213 C   0  0  0  0  0  0  0  0  0  0  0  0
    6.3341   -4.6880   10.6229 N   0  0  0  0  0  0  0  0  0  0  0  0
    5.6528   -4.8012    9.4489 C   0  0  0  0  0  0  0  0  0  0  0  0
    5.1019   -3.7147    8.5525 C   0  0  2  0  0  0  0  0  0  0  0  0
    4.0949   -2.8905    9.3126 C   0  0  0  0  0  0  0  0  0  0  0  0
    2.8068   -3.3608    9.4916 C   0  0  0  0  0  0  0  0  0  0  0  0
    1.8825   -2.6123   10.1902 C   0  0  0  0  0  0  0  0  0  0  0  0
    2.2390   -1.3752   10.7215 C   0  0  0  0  0  0  0  0  0  0  0  0
    3.5334   -0.9103   10.5288 C   0  0  0  0  0  0  0  0  0  0  0  0
    4.4575   -1.6634    9.8387 C   0  0  0  0  0  0  0  0  0  0  0  0
    3.6190    0.4525   11.1884 C   0  0  0  0  0  0  0  0  0  0  0  0
    2.1262    0.8033   11.3930 C   0  0  0  0  0  0  0  0  0  0  0  0
    1.4998   -0.4898   11.4448 O   0  0  0  0  0  0  0  0  0  0  0  0
    5.5420   -8.2880    9.0681 O   0  0  0  0  0  0  0  0  0  0  0  0
    1.0053    1.8021    0.0021 H   0  0  0  0  0  0  0  0  0  0  0  0
   -0.5445    1.7859   -0.8732 H   0  0  0  0  0  0  0  0  0  0  0  0
   -0.5275    1.7763    0.9067 H   0  0  0  0  0  0  0  0  0  0  0  0
    1.1536    1.2178    2.0077 H   0  0  0  0  0  0  0  0  0  0  0  0
    2.2840    0.1126    3.8910 H   0  0  0  0  0  0  0  0  0  0  0  0
    1.3681   -3.7129    2.1928 H   0  0  0  0  0  0  0  0  0  0  0  0
   -0.2869   -4.6423   -0.6212 H   0  0  0  0  0  0  0  0  0  0  0  0
    1.2562   -4.4660    0.2483 H   0  0  0  0  0  0  0  0  0  0  0  0
   -0.2769   -4.4918    1.1524 H   0  0  0  0  0  0  0  0  0  0  0  0
    2.2215   -4.5448    3.5963 H   0  0  0  0  0  0  0  0  0  0  0  0
    3.1311   -0.7103    5.3021 H   0  0  0  0  0  0  0  0  0  0  0  0
    3.6381   -6.2872    7.6848 H   0  0  0  0  0  0  0  0  0  0  0  0
    5.1796   -6.2381    6.7860 H   0  0  0  0  0  0  0  0  0  0  0  0
    6.7755   -9.1870   11.1304 H   0  0  0  0  0  0  0  0  0  0  0  0
    7.9939   -8.9070   13.2323 H   0  0  0  0  0  0  0  0  0  0  0  0
    8.4414   -6.6600   14.1227 H   0  0  0  0  0  0  0  0  0  0  0  0
    7.6734   -4.6641   12.9195 H   0  0  0  0  0  0  0  0  0  0  0  0
    5.9128   -3.0770    8.2005 H   0  0  0  0  0  0  0  0  0  0  0  0
    2.5230   -4.3189    9.0820 H   0  0  0  0  0  0  0  0  0  0  0  0
    0.8787   -2.9871   10.3259 H   0  0  0  0  0  0  0  0  0  0  0  0
    5.4637   -1.2945    9.7052 H   0  0  0  0  0  0  0  0  0  0  0  0
    4.1391    0.3905   12.1443 H   0  0  0  0  0  0  0  0  0  0  0  0
    4.1021    1.1744   10.5299 H   0  0  0  0  0  0  0  0  0  0  0  0
    1.9807    1.3407   12.3301 H   0  0  0  0  0  0  0  0  0  0  0  0
    1.7468    1.3827   10.5513 H   0  0  0  0  0  0  0  0  0  0  0  0
    6.5126   -3.8031   10.9779 H   0  0  0  0  0  0  0  0  0  0  0  0
  1  2  1  0  0  0  0
  1 40  1  0  0  0  0
  1 41  1  0  0  0  0
  1 42  1  0  0  0  0
  2  3  1  0  0  0  0
  3  8  2  0  0  0  0
  3  4  1  0  0  0  0
  4  5  2  0  0  0  0
  4 43  1  0  0  0  0
  5  6  1  0  0  0  0
  5 44  1  0  0  0  0
  6  7  2  0  0  0  0
  6 11  1  0  0  0  0
  7  8  1  0  0  0  0
  7 45  1  0  0  0  0
  8  9  1  0  0  0  0
  9 10  1  0  0  0  0
 10 46  1  0  0  0  0
 10 47  1  0  0  0  0
 10 48  1  0  0  0  0
 11 16  2  0  0  0  0
 11 12  1  0  0  0  0
 12 13  2  0  0  0  0
 12 49  1  0  0  0  0
 13 14  1  0  0  0  0
 14 15  2  0  0  0  0
 14 17  1  0  0  0  0
 15 16  1  0  0  0  0
 16 50  1  0  0  0  0
 17 29  1  0  0  0  0
 17 18  1  0  0  0  0
 18 19  1  0  0  0  0
 18 51  1  0  0  0  0
 18 52  1  0  0  0  0
 19 28  2  0  0  0  0
 19 20  1  0  0  0  0
 20 21  1  0  0  0  0
 20 39  2  0  0  0  0
 21 26  2  0  0  0  0
 21 22  1  0  0  0  0
 22 23  2  0  0  0  0
 22 53  1  0  0  0  0
 23 24  1  0  0  0  0
 23 54  1  0  0  0  0
 24 25  2  0  0  0  0
 24 55  1  0  0  0  0
 25 26  1  0  0  0  0
 25 56  1  0  0  0  0
 26 27  1  0  0  0  0
 27 28  1  0  0  0  0
 27 65  1  0  0  0  0
 28 29  1  0  0  0  0
 29 30  1  0  0  0  0
 29 57  1  0  0  0  0
 30 35  2  0  0  0  0
 30 31  1  0  0  0  0
 31 32  2  0  0  0  0
 31 58  1  0  0  0  0
 32 33  1  0  0  0  0
 32 59  1  0  0  0  0
 33 38  1  0  0  0  0
 33 34  2  0  0  0  0
 34 35  1  0  0  0  0
 34 36  1  0  0  0  0
 35 60  1  0  0  0  0
 36 37  1  0  0  0  0
 36 61  1  0  0  0  0
 36 62  1  0  0  0  0
 37 38  1  0  0  0  0
 37 63  1  0  0  0  0
 37 64  1  0  0  0  0
M  END
$$$$
CHEMBL336815
  -OEChem-07121202283D

 65 71  0     1  0  0  0  0  0999 V2000
   -0.0173    1.4248    0.0099 C   0  0  0  0  0  0  0  0  0  0  0  0
    0.0021   -0.0041    0.0020 O   0  0  0  0  0  0  0  0  0  0  0  0
    0.6262   -0.6187    1.0421 C   0  0  0  0  0  0  0  0  0  0  0  0
    1.2016    0.1397    2.0501 C   0  0  0  0  0  0  0  0  0  0  0  0
    1.8359   -0.4804    3.1074 C   0  0  0  0  0  0  0  0  0  0  0  0
    1.8989   -1.8714    3.1640 C   0  0  0  0  0  0  0  0  0  0  0  0
    1.3205   -2.6348    2.1517 C   0  0  0  0  0  0  0  0  0  0  0  0
    0.6815   -2.0090    1.0962 C   0  0  0  0  0  0  0  0  0  0  0  0
    0.1120   -2.7513    0.1092 O   0  0  0  0  0  0  0  0  0  0  0  0
    0.2067   -4.1721    0.2293 C   0  0  0  0  0  0  0  0  0  0  0  0
    2.5811   -2.5386    4.3001 C   0  0  0  0  0  0  0  0  0  0  0  0
    2.6590   -3.9319    4.3704 C   0  0  0  0  0  0  0  0  0  0  0  0
    3.2754   -4.4889    5.3980 N   0  0  0  0  0  0  0  0  0  0  0  0
    3.8146   -3.7443    6.3525 C   0  0  0  0  0  0  0  0  0  0  0  0
    3.7608   -2.4205    6.3212 N   0  0  0  0  0  0  0  0  0  0  0  0
    3.1669   -1.7895    5.3237 C   0  0  0  0  0  0  0  0  0  0  0  0
    4.4513   -4.3666    7.4120 N   0  0  0  0  0  0  0  0  0  0  0  0
    4.6155   -5.8098    7.6146 C   0  0  0  0  0  0  0  0  0  0  0  0
    5.3737   -6.0030    8.9044 C   0  0  0  0  0  0  0  0  0  0  0  0
    5.7885   -7.1944    9.5497 C   0  0  0  0  0  0  0  0  0  0  0  0
    6.5251   -7.0739   10.8184 C   0  0  0  0  0  0  0  0  0  0  0  0
    6.9690   -8.1969   11.5161 C   0  0  0  0  0  0  0  0  0  0  0  0
    7.6499   -8.0382   12.6908 C   0  0  0  0  0  0  0  0  0  0  0  0
    7.9022   -6.7690   13.1933 C   0  0  0  0  0  0  0  0  0  0  0  0
    7.4719   -5.6470   12.5199 C   0  0  0  0  0  0  0  0  0  0  0  0
    6.7770   -5.7855   11.3213 C   0  0  0  0  0  0  0  0  0  0  0  0
    6.3341   -4.6880   10.6229 N   0  0  0  0  0  0  0  0  0  0  0  0
    5.6528   -4.8012    9.4489 C   0  0  0  0  0  0  0  0  0  0  0  0
    5.1019   -3.7147    8.5525 C   0  0  1  0  0  0  0  0  0  0  0  0
    6.2229   -2.8330    8.0658 C   0  0  0  0  0  0  0  0  0  0  0  0
    7.0194   -3.2415    7.0118 C   0  0  0  0  0  0  0  0  0  0  0  0
    8.0441   -2.4364    6.5597 C   0  0  0  0  0  0  0  0  0  0  0  0
    8.2857   -1.2039    7.1618 C   0  0  0  0  0  0  0  0  0  0  0  0
    7.4837   -0.8079    8.2243 C   0  0  0  0  0  0  0  0  0  0  0  0
    6.4552   -1.6094    8.6683 C   0  0  0  0  0  0  0  0  0  0  0  0
    7.9917    0.5449    8.6843 C   0  0  0  0  0  0  0  0  0  0  0  0
    9.3790    0.6142    8.0033 C   0  0  0  0  0  0  0  0  0  0  0  0
    9.2221   -0.2592    6.8721 O   0  0  0  0  0  0  0  0  0  0  0  0
    5.5420   -8.2880    9.0681 O   0  0  0  0  0  0  0  0  0  0  0  0
    1.0053    1.8021    0.0021 H   0  0  0  0  0  0  0  0  0  0  0  0
   -0.5445    1.7859   -0.8732 H   0  0  0  0  0  0  0  0  0  0  0  0
   -0.5275    1.7763    0.9067 H   0  0  0  0  0  0  0  0  0  0  0  0
    1.1536    1.2178    2.0077 H   0  0  0  0  0  0  0  0  0  0  0  0
    2.2840    0.1126    3.8910 H   0  0  0  0  0  0  0  0  0  0  0  0
    1.3681   -3.7129    2.1928 H   0  0  0  0  0  0  0  0  0  0  0  0
   -0.2869   -4.6423   -0.6212 H   0  0  0  0  0  0  0  0  0  0  0  0
    1.2562   -4.4660    0.2483 H   0  0  0  0  0  0  0  0  0  0  0  0
   -0.2769   -4.4918    1.1524 H   0  0  0  0  0  0  0  0  0  0  0  0
    2.2215   -4.5448    3.5963 H   0  0  0  0  0  0  0  0  0  0  0  0
    3.1311   -0.7103    5.3021 H   0  0  0  0  0  0  0  0  0  0  0  0
    3.6381   -6.2872    7.6848 H   0  0  0  0  0  0  0  0  0  0  0  0
    5.1796   -6.2381    6.7860 H   0  0  0  0  0  0  0  0  0  0  0  0
    6.7755   -9.1870   11.1304 H   0  0  0  0  0  0  0  0  0  0  0  0
    7.9939   -8.9070   13.2323 H   0  0  0  0  0  0  0  0  0  0  0  0
    8.4414   -6.6600   14.1227 H   0  0  0  0  0  0  0  0  0  0  0  0
    7.6734   -4.6641   12.9195 H   0  0  0  0  0  0  0  0  0  0  0  0
    4.3736   -3.1186    9.1023 H   0  0  0  0  0  0  0  0  0  0  0  0
    6.8384   -4.1962    6.5404 H   0  0  0  0  0  0  0  0  0  0  0  0
    8.6611   -2.7628    5.7356 H   0  0  0  0  0  0  0  0  0  0  0  0
    5.8327   -1.2844    9.4888 H   0  0  0  0  0  0  0  0  0  0  0  0
    7.3431    1.3458    8.3294 H   0  0  0  0  0  0  0  0  0  0  0  0
    8.0885    0.5762    9.7696 H   0  0  0  0  0  0  0  0  0  0  0  0
    9.5994    1.6311    7.6784 H   0  0  0  0  0  0  0  0  0  0  0  0
   10.1564    0.2443    8.6719 H   0  0  0  0  0  0  0  0  0  0  0  0
    6.5126   -3.8031   10.9779 H   0  0  0  0  0  0  0  0  0  0  0  0
  1  2  1  0  0  0  0
  1 40  1  0  0  0  0
  1 41  1  0  0  0  0
  1 42  1  0  0  0  0
  2  3  1  0  0  0  0
  3  8  2  0  0  0  0
  3  4  1  0  0  0  0
  4  5  2  0  0  0  0
  4 43  1  0  0  0  0
  5  6  1  0  0  0  0
  5 44  1  0  0  0  0
  6  7  2  0  0  0  0
  6 11  1  0  0  0  0
  7  8  1  0  0  0  0
  7 45  1  0  0  0  0
  8  9  1  0  0  0  0
  9 10  1  0  0  0  0
 10 46  1  0  0  0  0
 10 47  1  0  0  0  0
 10 48  1  0  0  0  0
 11 16  2  0  0  0  0
 11 12  1  0  0  0  0
 12 13  2  0  0  0  0
 12 49  1  0  0  0  0
 13 14  1  0  0  0  0
 14 15  2  0  0  0  0
 14 17  1  0  0  0  0
 15 16  1  0  0  0  0
 16 50  1  0  0  0  0
 17 29  1  0  0  0  0
 17 18  1  0  0  0  0
 18 19  1  0  0  0  0
 18 51  1  0  0  0  0
 18 52  1  0  0  0  0
 19 28  2  0  0  0  0
 19 20  1  0  0  0  0
 20 21  1  0  0  0  0
 20 39  2  0  0  0  0
 21 26  2  0  0  0  0
 21 22  1  0  0  0  0
 22 23  2  0  0  0  0
 22 53  1  0  0  0  0
 23 24  1  0  0  0  0
 23 54  1  0  0  0  0
 24 25  2  0  0  0  0
 24 55  1  0  0  0  0
 25 26  1  0  0  0  0
 25 56  1  0  0  0  0
 26 27  1  0  0  0  0
 27 28  1  0  0  0  0
 27 65  1  0  0  0  0
 28 29  1  0  0  0  0
 29 30  1  0  0  0  0
 29 57  1  0  0  0  0
 30 35  2  0  0  0  0
 30 31  1  0  0  0  0
 31 32  2  0  0  0  0
 31 58  1  0  0  0  0
 32 33  1  0  0  0  0
 32 59  1  0  0  0  0
 33 38  1  0  0  0  0
 33 34  2  0  0  0  0
 34 35  1  0  0  0  0
 34 36  1  0  0  0  0
 35 60  1  0  0  0  0
 36 37  1  0  0  0  0
 36 61  1  0  0  0  0
 36 62  1  0  0  0  0
 37 38  1  0  0  0  0
 37 63  1  0  0  0  0
 37 64  1  0  0  0  0
M  END
$$$$
CHEMBL195282
  -OEChem-07121202283D

 61 66  0     0  0  0  0  0  0999 V2000
   -0.0184    1.5028    0.0103 C   0  0  0  0  0  0  0  0  0  0  0  0
    0.0021   -0.0041    0.0020 C   0  0  0  0  0  0  0  0  0  0  0  0
   -1.2118   -0.7183    0.0040 C   0  0  0  0  0  0  0  0  0  0  0  0
   -2.5168   -0.0582    0.0134 C   0  0  0  0  0  0  0  0  0  0  0  0
   -2.9380    1.2501    0.0219 C   0  0  0  0  0  0  0  0  0  0  0  0
   -4.3390    1.2424    0.0278 C   0  0  0  0  0  0  0  0  0  0  0  0
   -4.7543   -0.0112    0.0231 N   0  0  0  0  0  0  0  0  0  0  0  0
   -3.6395   -0.8571    0.0140 N   0  0  0  0  0  0  0  0  0  0  0  0
   -3.5024   -2.2151    0.0064 C   0  0  0  0  0  0  0  0  0  0  0  0
   -2.3459   -2.8078   -0.0011 N   0  0  0  0  0  0  0  0  0  0  0  0
   -1.1897   -2.1243   -0.0038 C   0  0  0  0  0  0  0  0  0  0  0  0
    0.1123   -2.7930   -0.0132 C   0  0  0  0  0  0  0  0  0  0  0  0
    0.1898   -4.0098   -0.0206 O   0  0  0  0  0  0  0  0  0  0  0  0
    1.2260   -2.0282   -0.0140 N   0  0  0  0  0  0  0  0  0  0  0  0
    1.1425   -0.6340   -0.0123 N   0  0  0  0  0  0  0  0  0  0  0  0
    2.5422   -2.6715   -0.0233 C   0  0  0  0  0  0  0  0  0  0  0  0
    2.9872   -2.8843   -1.4473 C   0  0  0  0  0  0  0  0  0  0  0  0
    2.6608   -4.0551   -2.1058 C   0  0  0  0  0  0  0  0  0  0  0  0
    3.0689   -4.2503   -3.4120 C   0  0  0  0  0  0  0  0  0  0  0  0
    3.8032   -3.2746   -4.0599 C   0  0  0  0  0  0  0  0  0  0  0  0
    4.1288   -2.1034   -3.4017 C   0  0  0  0  0  0  0  0  0  0  0  0
    3.7170   -1.9064   -2.0969 C   0  0  0  0  0  0  0  0  0  0  0  0
   -4.7471   -3.0647    0.0073 C   0  0  0  0  0  0  0  0  0  0  0  0
   -4.3551   -4.5436   -0.0020 C   0  0  0  0  0  0  0  0  0  0  0  0
   -5.5998   -5.3932   -0.0010 C   0  0  0  0  0  0  0  0  0  0  0  0
   -6.1687   -5.7843    1.1965 C   0  0  0  0  0  0  0  0  0  0  0  0
   -7.3105   -6.5637    1.1974 C   0  0  0  0  0  0  0  0  0  0  0  0
   -7.8835   -6.9515    0.0007 C   0  0  0  0  0  0  0  0  0  0  0  0
   -7.3150   -6.5596   -1.1969 C   0  0  0  0  0  0  0  0  0  0  0  0
   -6.1757   -5.7767   -1.1977 C   0  0  0  0  0  0  0  0  0  0  0  0
   -5.2112    2.4432    0.0385 C   0  0  0  0  0  0  0  0  0  0  0  0
   -4.6470    3.7171    0.0376 C   0  0  0  0  0  0  0  0  0  0  0  0
   -5.4628    4.8304    0.0476 C   0  0  0  0  0  0  0  0  0  0  0  0
   -6.8380    4.6831    0.0589 C   0  0  0  0  0  0  0  0  0  0  0  0
   -7.4035    3.4207    0.0602 C   0  0  0  0  0  0  0  0  0  0  0  0
   -6.5971    2.3006    0.0436 C   0  0  0  0  0  0  0  0  0  0  0  0
    1.0042    1.8801    0.0026 H   0  0  0  0  0  0  0  0  0  0  0  0
   -0.5455    1.8639   -0.8728 H   0  0  0  0  0  0  0  0  0  0  0  0
   -0.5286    1.8543    0.9071 H   0  0  0  0  0  0  0  0  0  0  0  0
   -2.3045    2.1247    0.0240 H   0  0  0  0  0  0  0  0  0  0  0  0
    3.2617   -2.0342    0.4908 H   0  0  0  0  0  0  0  0  0  0  0  0
    2.4801   -3.6334    0.4856 H   0  0  0  0  0  0  0  0  0  0  0  0
    2.0871   -4.8174   -1.5996 H   0  0  0  0  0  0  0  0  0  0  0  0
    2.8145   -5.1653   -3.9262 H   0  0  0  0  0  0  0  0  0  0  0  0
    4.1227   -3.4274   -5.0801 H   0  0  0  0  0  0  0  0  0  0  0  0
    4.7028   -1.3413   -3.9077 H   0  0  0  0  0  0  0  0  0  0  0  0
    3.9682   -0.9898   -1.5839 H   0  0  0  0  0  0  0  0  0  0  0  0
   -5.3330   -2.8498    0.9009 H   0  0  0  0  0  0  0  0  0  0  0  0
   -5.3406   -2.8406   -0.8790 H   0  0  0  0  0  0  0  0  0  0  0  0
   -3.7691   -4.7586   -0.8956 H   0  0  0  0  0  0  0  0  0  0  0  0
   -3.7615   -4.7678    0.8844 H   0  0  0  0  0  0  0  0  0  0  0  0
   -5.7211   -5.4814    2.1315 H   0  0  0  0  0  0  0  0  0  0  0  0
   -7.7546   -6.8698    2.1330 H   0  0  0  0  0  0  0  0  0  0  0  0
   -8.7751   -7.5609    0.0013 H   0  0  0  0  0  0  0  0  0  0  0  0
   -7.7625   -6.8629   -2.1319 H   0  0  0  0  0  0  0  0  0  0  0  0
   -5.7337   -5.4674   -2.1334 H   0  0  0  0  0  0  0  0  0  0  0  0
   -3.5733    3.8332    0.0296 H   0  0  0  0  0  0  0  0  0  0  0  0
   -5.0265    5.8184    0.0470 H   0  0  0  0  0  0  0  0  0  0  0  0
   -7.4727    5.5569    0.0670 H   0  0  0  0  0  0  0  0  0  0  0  0
   -8.4779    3.3114    0.0697 H   0  0  0  0  0  0  0  0  0  0  0  0
   -7.0396    1.3155    0.0397 H   0  0  0  0  0  0  0  0  0  0  0  0
  1  2  1  0  0  0  0
  1 37  1  0  0  0  0
  1 38  1  0  0  0  0
  1 39  1  0  0  0  0
  2 15  2  0  0  0  0
  2  3  1  0  0  0  0
  3 11  2  0  0  0  0
  3  4  1  0  0  0  0
  4  8  1  0  0  0  0
  4  5  2  0  0  0  0
  5  6  1  0  0  0  0
  5 40  1  0  0  0  0
  6  7  2  0  0  0  0
  6 31  1  0  0  0  0
  7  8  1  0  0  0  0
  8  9  1  0  0  0  0
  9 10  2  0  0  0  0
  9 23  1  0  0  0  0
 10 11  1  0  0  0  0
 11 12  1  0  0  0  0
 12 13  2  0  0  0  0
 12 14  1  0  0  0  0
 14 15  1  0  0  0  0
 14 16  1  0  0  0  0
 16 17  1  0  0  0  0
 16 41  1  0  0  0  0
 16 42  1  0  0  0  0
 17 22  2  0  0  0  0
 17 18  1  0  0  0  0
 18 19  2  0  0  0  0
 18 43  1  0  0  0  0
 19 20  1  0  0  0  0
 19 44  1  0  0  0  0
 20 21  2  0  0  0  0
 20 45  1  0  0  0  0
 21 22  1  0  0  0  0
 21 46  1  0  0  0  0
 22 47  1  0  0  0  0
 23 24  1  0  0  0  0
 23 48  1  0  0  0  0
 23 49  1  0  0  0  0
 24 25  1  0  0  0  0
 24 50  1  0  0  0  0
 24 51  1  0  0  0  0
 25 30  2  0  0  0  0
 25 26  1  0  0  0  0
 26 27  2  0  0  0  0
 26 52  1  0  0  0  0
 27 28  1  0  0  0  0
 27 53  1  0  0  0  0
 28 29  2  0  0  0  0
 28 54  1  0  0  0  0
 29 30  1  0  0  0  0
 29 55  1  0  0  0  0
 30 56  1  0  0  0  0
 31 36  2  0  0  0  0
 31 32  1  0  0  0  0
 32 33  2  0  0  0  0
 32 57  1  0  0  0  0
 33 34  1  0  0  0  0
 33 58  1  0  0  0  0
 34 35  2  0  0  0  0
 34 59  1  0  0  0  0
 35 36  1  0  0  0  0
 35 60  1  0  0  0  0
 36 61  1  0  0  0  0
M  END
$$$$
CHEMBL305988
  -OEChem-07121202283D

 47 51  0     1  0  0  0  0  0999 V2000
   -0.0178    1.4608    0.0101 C   0  0  0  0  0  0  0  0  0  0  0  0
    0.0021   -0.0041    0.0020 N   0  0  0  0  0  0  0  0  0  0  0  0
    0.0054   -0.6566   -1.1744 C   0  0  0  0  0  0  0  0  0  0  0  0
   -0.0086   -0.0384   -2.2231 O   0  0  0  0  0  0  0  0  0  0  0  0
    0.0266   -2.1195   -1.1760 C   0  0  0  0  0  0  0  0  0  0  0  0
    0.0433   -2.7825    0.0421 C   0  0  0  0  0  0  0  0  0  0  0  0
    0.0609   -4.1122   -0.2441 N   0  0  0  0  0  0  0  0  0  0  0  0
    0.0544   -4.2410   -1.6028 C   0  0  0  0  0  0  0  0  0  0  0  0
    0.0342   -3.0611   -2.1514 N   0  0  0  0  0  0  0  0  0  0  0  0
    0.0757   -4.8371    0.4003 H   0  0  0  0  0  0  0  0  0  0  0  0
    0.0688   -5.5483   -2.3523 C   0  0  0  0  0  0  0  0  0  0  0  0
   -1.1182   -5.5965   -3.3164 C   0  0  0  0  0  0  0  0  0  0  0  0
   -2.4396   -5.6741   -2.5242 C   0  0  0  0  0  0  0  0  0  0  0  0
   -3.3338   -6.6161   -3.3682 C   0  0  0  0  0  0  0  0  0  0  0  0
   -2.3269   -7.6767   -3.8784 C   0  0  0  0  0  0  0  0  0  0  0  0
   -1.0465   -6.8698   -4.1775 C   0  0  0  0  0  0  0  0  0  0  0  0
    0.0392   -2.0608    1.2171 N   0  0  0  0  0  0  0  0  0  0  0  0
    0.0228   -0.6900    1.2075 C   0  0  0  0  0  0  0  0  0  0  0  0
    0.0234   -0.1690    2.4049 N   0  3  0  0  0  0  0  0  0  0  0  0
    0.0512   -1.2158    3.4291 C   0  0  1  0  0  0  0  0  0  0  0  0
   -0.8090   -1.1564    4.0959 H   0  0  0  0  0  0  0  0  0  0  0  0
    0.0527   -2.5299    2.6141 C   0  0  2  0  0  0  0  0  0  0  0  0
   -0.7982   -3.1714    2.8434 H   0  0  0  0  0  0  0  0  0  0  0  0
    1.4050   -3.2098    2.9065 C   0  0  0  0  0  0  0  0  0  0  0  0
    2.3282   -2.0502    3.3548 C   0  0  0  0  0  0  0  0  0  0  0  0
    1.3840   -1.1431    4.2016 C   0  0  0  0  0  0  0  0  0  0  0  0
    1.0048    1.8381    0.0023 H   0  0  0  0  0  0  0  0  0  0  0  0
   -0.5450    1.8219   -0.8730 H   0  0  0  0  0  0  0  0  0  0  0  0
   -0.5280    1.8123    0.9069 H   0  0  0  0  0  0  0  0  0  0  0  0
    0.9981   -5.6339   -2.9155 H   0  0  0  0  0  0  0  0  0  0  0  0
   -0.0043   -6.3738   -1.6443 H   0  0  0  0  0  0  0  0  0  0  0  0
   -1.1162   -4.7133   -3.9551 H   0  0  0  0  0  0  0  0  0  0  0  0
   -2.2669   -6.0974   -1.5347 H   0  0  0  0  0  0  0  0  0  0  0  0
   -2.8947   -4.6869   -2.4438 H   0  0  0  0  0  0  0  0  0  0  0  0
   -4.1011   -7.0789   -2.7476 H   0  0  0  0  0  0  0  0  0  0  0  0
   -3.7832   -6.0773   -4.2024 H   0  0  0  0  0  0  0  0  0  0  0  0
   -2.1359   -8.4234   -3.1076 H   0  0  0  0  0  0  0  0  0  0  0  0
   -2.6997   -8.1510   -4.7863 H   0  0  0  0  0  0  0  0  0  0  0  0
   -1.0106   -6.6045   -5.2341 H   0  0  0  0  0  0  0  0  0  0  0  0
   -0.1661   -7.4534   -3.9085 H   0  0  0  0  0  0  0  0  0  0  0  0
    1.2979   -3.9426    3.7062 H   0  0  0  0  0  0  0  0  0  0  0  0
    1.7966   -3.6821    2.0056 H   0  0  0  0  0  0  0  0  0  0  0  0
    3.1471   -2.4240    3.9694 H   0  0  0  0  0  0  0  0  0  0  0  0
    2.7094   -1.5042    2.4919 H   0  0  0  0  0  0  0  0  0  0  0  0
    1.7438   -0.1152    4.2454 H   0  0  0  0  0  0  0  0  0  0  0  0
    1.2652   -1.5496    5.2060 H   0  0  0  0  0  0  0  0  0  0  0  0
    0.0076    0.7828    2.5910 H   0  0  0  0  0  0  0  0  0  0  0  0
  1  2  1  0  0  0  0
  1 27  1  0  0  0  0
  1 28  1  0  0  0  0
  1 29  1  0  0  0  0
  2 18  1  0  0  0  0
  2  3  1  0  0  0  0
  3  4  2  0  0  0  0
  3  5  1  0  0  0  0
  5  9  1  0  0  0  0
  5  6  2  0  0  0  0
  6 17  1  0  0  0  0
  6  7  1  0  0  0  0
  7  8  1  0  0  0  0
  7 10  1  0  0  0  0
  8 11  1  0  0  0  0
  8  9  2  0  0  0  0
 11 12  1  0  0  0  0
 11 30  1  0  0  0  0
 11 31  1  0  0  0  0
 12 16  1  0  0  0  0
 12 13  1  0  0  0  0
 12 32  1  0  0  0  0
 13 14  1  0  0  0  0
 13 33  1  0  0  0  0
 13 34  1  0  0  0  0
 14 15  1  0  0  0  0
 14 35  1  0  0  0  0
 14 36  1  0  0  0  0
 15 16  1  0  0  0  0
 15 37  1  0  0  0  0
 15 38  1  0  0  0  0
 16 39  1  0  0  0  0
 16 40  1  0  0  0  0
 17 22  1  0  0  0  0
 17 18  1  0  0  0  0
 18 19  2  0  0  0  0
 19 20  1  0  0  0  0
 19 47  1  0  0  0  0
 20 21  1  0  0  0  0
 20 26  1  0  0  0  0
 20 22  1  0  0  0  0
 22 23  1  0  0  0  0
 22 24  1  0  0  0  0
 24 25  1  0  0  0  0
 24 41  1  0  0  0  0
 24 42  1  0  0  0  0
 25 26  1  0  0  0  0
 25 43  1  0  0  0  0
 25 44  1  0  0  0  0
 26 45  1  0  0  0  0
 26 46  1  0  0  0  0
M  CHG  1  19   1
M  END
$$$$
CHEMBL305988
  -OEChem-07121202283D

 47 51  0     1  0  0  0  0  0999 V2000
   -0.0178    1.4608    0.0101 C   0  0  0  0  0  0  0  0  0  0  0  0
    0.0021   -0.0041    0.0020 N   0  0  0  0  0  0  0  0  0  0  0  0
    0.0054   -0.6573   -1.1733 C   0  0  0  0  0  0  0  0  0  0  0  0
   -0.0083   -0.0326   -2.2187 O   0  0  0  0  0  0  0  0  0  0  0  0
    0.0253   -2.0678   -1.1930 C   0  0  0  0  0  0  0  0  0  0  0  0
    0.0428   -2.7648    0.0060 C   0  0  0  0  0  0  0  0  0  0  0  0
    0.0601   -4.0673   -0.2928 N   0  0  0  0  0  0  0  0  0  0  0  0
    0.0542   -4.2242   -1.5919 C   0  0  0  0  0  0  0  0  0  0  0  0
    0.0329   -3.0197   -2.1947 N   0  0  0  0  0  0  0  0  0  0  0  0
    0.0240   -2.8524   -3.1501 H   0  0  0  0  0  0  0  0  0  0  0  0
    0.0695   -5.5513   -2.3056 C   0  0  0  0  0  0  0  0  0  0  0  0
    1.2662   -6.3749   -1.8255 C   0  0  0  0  0  0  0  0  0  0  0  0
    2.5812   -5.7207   -2.2973 C   0  0  0  0  0  0  0  0  0  0  0  0
    3.4995   -6.9194   -2.6421 C   0  0  0  0  0  0  0  0  0  0  0  0
    2.5160   -7.9301   -3.2826 C   0  0  0  0  0  0  0  0  0  0  0  0
    1.2247   -7.7797   -2.4520 C   0  0  0  0  0  0  0  0  0  0  0  0
    0.0390   -2.0621    1.2023 N   0  0  0  0  0  0  0  0  0  0  0  0
    0.0228   -0.6909    1.2067 C   0  0  0  0  0  0  0  0  0  0  0  0
    0.0232   -0.1825    2.4083 N   0  3  0  0  0  0  0  0  0  0  0  0
    0.0515   -1.2406    3.4216 C   0  0  1  0  0  0  0  0  0  0  0  0
   -0.8088   -1.1891    4.0888 H   0  0  0  0  0  0  0  0  0  0  0  0
    0.0538   -2.5462    2.5925 C   0  0  2  0  0  0  0  0  0  0  0  0
   -0.7960   -3.1915    2.8149 H   0  0  0  0  0  0  0  0  0  0  0  0
    1.4070   -3.2270    2.8788 C   0  0  0  0  0  0  0  0  0  0  0  0
    2.3282   -2.0707    3.3395 C   0  0  0  0  0  0  0  0  0  0  0  0
    1.3841   -1.1747    4.1950 C   0  0  0  0  0  0  0  0  0  0  0  0
    1.0048    1.8381    0.0023 H   0  0  0  0  0  0  0  0  0  0  0  0
   -0.5450    1.8219   -0.8730 H   0  0  0  0  0  0  0  0  0  0  0  0
   -0.5280    1.8123    0.9069 H   0  0  0  0  0  0  0  0  0  0  0  0
   -0.8528   -6.0907   -2.0897 H   0  0  0  0  0  0  0  0  0  0  0  0
    0.1502   -5.3853   -3.3799 H   0  0  0  0  0  0  0  0  0  0  0  0
    1.2550   -6.4505   -0.7382 H   0  0  0  0  0  0  0  0  0  0  0  0
    2.4065   -5.1072   -3.1812 H   0  0  0  0  0  0  0  0  0  0  0  0
    3.0184   -5.1230   -1.4973 H   0  0  0  0  0  0  0  0  0  0  0  0
    4.2688   -6.6239   -3.3556 H   0  0  0  0  0  0  0  0  0  0  0  0
    3.9473   -7.3351   -1.7396 H   0  0  0  0  0  0  0  0  0  0  0  0
    2.3307   -7.6736   -4.3256 H   0  0  0  0  0  0  0  0  0  0  0  0
    2.9055   -8.9449   -3.2018 H   0  0  0  0  0  0  0  0  0  0  0  0
    1.1942   -8.5371   -1.6687 H   0  0  0  0  0  0  0  0  0  0  0  0
    0.3520   -7.8748   -3.0981 H   0  0  0  0  0  0  0  0  0  0  0  0
    1.3006   -3.9681    3.6710 H   0  0  0  0  0  0  0  0  0  0  0  0
    1.7999   -3.6895    1.9734 H   0  0  0  0  0  0  0  0  0  0  0  0
    3.1475   -2.4495    3.9506 H   0  0  0  0  0  0  0  0  0  0  0  0
    2.7088   -1.5152    2.4825 H   0  0  0  0  0  0  0  0  0  0  0  0
    1.7428   -0.1468    4.2495 H   0  0  0  0  0  0  0  0  0  0  0  0
    1.2656   -1.5917    5.1951 H   0  0  0  0  0  0  0  0  0  0  0  0
    0.0072    0.7673    2.6043 H   0  0  0  0  0  0  0  0  0  0  0  0
  1  2  1  0  0  0  0
  1 27  1  0  0  0  0
  1 28  1  0  0  0  0
  1 29  1  0  0  0  0
  2 18  1  0  0  0  0
  2  3  1  0  0  0  0
  3  4  2  0  0  0  0
  3  5  1  0  0  0  0
  5  9  1  0  0  0  0
  5  6  2  0  0  0  0
  6  7  1  0  0  0  0
  6 17  1  0  0  0  0
  7  8  2  0  0  0  0
  8  9  1  0  0  0  0
  8 11  1  0  0  0  0
  9 10  1  0  0  0  0
 11 12  1  0  0  0  0
 11 30  1  0  0  0  0
 11 31  1  0  0  0  0
 12 16  1  0  0  0  0
 12 13  1  0  0  0  0
 12 32  1  0  0  0  0
 13 14  1  0  0  0  0
 13 33  1  0  0  0  0
 13 34  1  0  0  0  0
 14 15  1  0  0  0  0
 14 35  1  0  0  0  0
 14 36  1  0  0  0  0
 15 16  1  0  0  0  0
 15 37  1  0  0  0  0
 15 38  1  0  0  0  0
 16 39  1  0  0  0  0
 16 40  1  0  0  0  0
 17 22  1  0  0  0  0
 17 18  1  0  0  0  0
 18 19  2  0  0  0  0
 19 20  1  0  0  0  0
 19 47  1  0  0  0  0
 20 21  1  0  0  0  0
 20 26  1  0  0  0  0
 20 22  1  0  0  0  0
 22 23  1  0  0  0  0
 22 24  1  0  0  0  0
 24 25  1  0  0  0  0
 24 41  1  0  0  0  0
 24 42  1  0  0  0  0
 25 26  1  0  0  0  0
 25 43  1  0  0  0  0
 25 44  1  0  0  0  0
 26 45  1  0  0  0  0
 26 46  1  0  0  0  0
M  CHG  1  19   1
M  END
$$$$
CHEMBL305988
  -OEChem-07121202283D

 48 52  0     1  0  0  0  0  0999 V2000
   -0.0178    1.4608    0.0101 C   0  0  0  0  0  0  0  0  0  0  0  0
    0.0021   -0.0041    0.0020 N   0  0  0  0  0  0  0  0  0  0  0  0
    0.0054   -0.6573   -1.1733 C   0  0  0  0  0  0  0  0  0  0  0  0
   -0.0083   -0.0326   -2.2187 O   0  0  0  0  0  0  0  0  0  0  0  0
    0.0253   -2.0678   -1.1930 C   0  0  0  0  0  0  0  0  0  0  0  0
    0.0428   -2.7648    0.0060 C   0  0  0  0  0  0  0  0  0  0  0  0
    0.0601   -4.0673   -0.2928 N   0  3  0  0  0  0  0  0  0  0  0  0
    0.0542   -4.2242   -1.5919 C   0  0  0  0  0  0  0  0  0  0  0  0
    0.0329   -3.0197   -2.1947 N   0  0  0  0  0  0  0  0  0  0  0  0
    0.0240   -2.8524   -3.1501 H   0  0  0  0  0  0  0  0  0  0  0  0
    0.0695   -5.5513   -2.3056 C   0  0  0  0  0  0  0  0  0  0  0  0
   -1.3677   -6.0220   -2.5381 C   0  0  0  0  0  0  0  0  0  0  0  0
   -2.0346   -6.3687   -1.1909 C   0  0  0  0  0  0  0  0  0  0  0  0
   -2.9154   -7.6023   -1.5095 C   0  0  0  0  0  0  0  0  0  0  0  0
   -2.0392   -8.3994   -2.5075 C   0  0  0  0  0  0  0  0  0  0  0  0
   -1.3706   -7.3131   -3.3752 C   0  0  0  0  0  0  0  0  0  0  0  0
    0.0390   -2.0621    1.2023 N   0  0  0  0  0  0  0  0  0  0  0  0
    0.0228   -0.6909    1.2067 C   0  0  0  0  0  0  0  0  0  0  0  0
    0.0232   -0.1825    2.4083 N   0  3  0  0  0  0  0  0  0  0  0  0
    0.0515   -1.2406    3.4216 C   0  0  1  0  0  0  0  0  0  0  0  0
   -0.8088   -1.1891    4.0888 H   0  0  0  0  0  0  0  0  0  0  0  0
    0.0538   -2.5462    2.5925 C   0  0  2  0  0  0  0  0  0  0  0  0
   -0.7960   -3.1915    2.8149 H   0  0  0  0  0  0  0  0  0  0  0  0
    1.4070   -3.2270    2.8788 C   0  0  0  0  0  0  0  0  0  0  0  0
    2.3282   -2.0707    3.3395 C   0  0  0  0  0  0  0  0  0  0  0  0
    1.3841   -1.1747    4.1950 C   0  0  0  0  0  0  0  0  0  0  0  0
    1.0048    1.8381    0.0023 H   0  0  0  0  0  0  0  0  0  0  0  0
   -0.5450    1.8219   -0.8730 H   0  0  0  0  0  0  0  0  0  0  0  0
   -0.5280    1.8123    0.9069 H   0  0  0  0  0  0  0  0  0  0  0  0
    0.5757   -5.4423   -3.2648 H   0  0  0  0  0  0  0  0  0  0  0  0
    0.5982   -6.2851   -1.6972 H   0  0  0  0  0  0  0  0  0  0  0  0
   -1.9369   -5.2449   -3.0482 H   0  0  0  0  0  0  0  0  0  0  0  0
   -1.2802   -6.6208   -0.4455 H   0  0  0  0  0  0  0  0  0  0  0  0
   -2.6510   -5.5388   -0.8456 H   0  0  0  0  0  0  0  0  0  0  0  0
   -3.1029   -8.1862   -0.6083 H   0  0  0  0  0  0  0  0  0  0  0  0
   -3.8524   -7.2979   -1.9757 H   0  0  0  0  0  0  0  0  0  0  0  0
   -1.2856   -8.9794   -1.9748 H   0  0  0  0  0  0  0  0  0  0  0  0
   -2.6590   -9.0513   -3.1231 H   0  0  0  0  0  0  0  0  0  0  0  0
   -1.9420   -7.1628   -4.2912 H   0  0  0  0  0  0  0  0  0  0  0  0
   -0.3482   -7.6044   -3.6159 H   0  0  0  0  0  0  0  0  0  0  0  0
    1.3006   -3.9681    3.6710 H   0  0  0  0  0  0  0  0  0  0  0  0
    1.7999   -3.6895    1.9734 H   0  0  0  0  0  0  0  0  0  0  0  0
    3.1475   -2.4495    3.9506 H   0  0  0  0  0  0  0  0  0  0  0  0
    2.7088   -1.5152    2.4825 H   0  0  0  0  0  0  0  0  0  0  0  0
    1.7428   -0.1468    4.2495 H   0  0  0  0  0  0  0  0  0  0  0  0
    1.2656   -1.5917    5.1951 H   0  0  0  0  0  0  0  0  0  0  0  0
    0.0072    0.7673    2.6043 H   0  0  0  0  0  0  0  0  0  0  0  0
    0.0748   -4.7883    0.3560 H   0  0  0  0  0  0  0  0  0  0  0  0
  1  2  1  0  0  0  0
  1 27  1  0  0  0  0
  1 28  1  0  0  0  0
  1 29  1  0  0  0  0
  2 18  1  0  0  0  0
  2  3  1  0  0  0  0
  3  4  2  0  0  0  0
  3  5  1  0  0  0  0
  5  9  1  0  0  0  0
  5  6  2  0  0  0  0
  6  7  1  0  0  0  0
  6 17  1  0  0  0  0
  7  8  2  0  0  0  0
  7 48  1  0  0  0  0
  8  9  1  0  0  0  0
  8 11  1  0  0  0  0
  9 10  1  0  0  0  0
 11 12  1  0  0  0  0
 11 30  1  0  0  0  0
 11 31  1  0  0  0  0
 12 16  1  0  0  0  0
 12 13  1  0  0  0  0
 12 32  1  0  0  0  0
 13 14  1  0  0  0  0
 13 33  1  0  0  0  0
 13 34  1  0  0  0  0
 14 15  1  0  0  0  0
 14 35  1  0  0  0  0
 14 36  1  0  0  0  0
 15 16  1  0  0  0  0
 15 37  1  0  0  0  0
 15 38  1  0  0  0  0
 16 39  1  0  0  0  0
 16 40  1  0  0  0  0
 17 22  1  0  0  0  0
 17 18  1  0  0  0  0
 18 19  2  0  0  0  0
 19 20  1  0  0  0  0
 19 47  1  0  0  0  0
 20 21  1  0  0  0  0
 20 26  1  0  0  0  0
 20 22  1  0  0  0  0
 22 23  1  0  0  0  0
 22 24  1  0  0  0  0
 24 25  1  0  0  0  0
 24 41  1  0  0  0  0
 24 42  1  0  0  0  0
 25 26  1  0  0  0  0
 25 43  1  0  0  0  0
 25 44  1  0  0  0  0
 26 45  1  0  0  0  0
 26 46  1  0  0  0  0
M  CHG  2   7   1  19   1
M  END
$$$$
CHEMBL359924
  -OEChem-07121202283D

 42 45  0     0  0  0  0  0  0999 V2000
   -0.0187    1.5258    0.0104 C   0  0  0  0  0  0  0  0  0  0  0  0
    0.0021   -0.0041    0.0020 C   0  0  0  0  0  0  0  0  0  0  0  0
   -1.3386   -0.4987    0.0122 O   0  0  0  0  0  0  0  0  0  0  0  0
   -1.4982   -1.8471    0.0064 C   0  0  0  0  0  0  0  0  0  0  0  0
   -0.3893   -2.6790   -0.0029 C   0  0  0  0  0  0  0  0  0  0  0  0
   -0.5531   -4.0506   -0.0092 C   0  0  0  0  0  0  0  0  0  0  0  0
   -1.8225   -4.6028   -0.0058 C   0  0  0  0  0  0  0  0  0  0  0  0
   -2.9351   -3.7874    0.0039 C   0  0  0  0  0  0  0  0  0  0  0  0
   -2.7819   -2.4020    0.0157 C   0  0  0  0  0  0  0  0  0  0  0  0
   -3.9737   -1.5212    0.0324 C   0  0  0  0  0  0  0  0  0  0  0  0
   -5.1766   -2.0718    0.0464 N   0  0  0  0  0  0  0  0  0  0  0  0
   -6.2683   -1.3076    0.0616 C   0  0  0  0  0  0  0  0  0  0  0  0
   -6.1266    0.0881    0.0627 C   0  0  0  0  0  0  0  0  0  0  0  0
   -4.8332    0.6253    0.0472 C   0  0  0  0  0  0  0  0  0  0  0  0
   -3.7995   -0.2031    0.0384 N   0  0  0  0  0  0  0  0  0  0  0  0
   -4.6428    1.9670    0.0475 O   0  5  0  0  0  0  0  0  0  0  0  0
   -7.3645    0.6154    0.0792 O   0  0  0  0  0  0  0  0  0  0  0  0
   -8.3173   -0.4298    0.0890 N   0  0  0  0  0  0  0  0  0  0  0  0
   -7.7085   -1.5759    0.0790 C   0  0  0  0  0  0  0  0  0  0  0  0
   -8.3628   -2.9335    0.0849 C   0  0  0  0  0  0  0  0  0  0  0  0
   -9.3151   -3.0663   -1.1214 C   0  0  0  0  0  0  0  0  0  0  0  0
  -10.5130   -3.8800   -0.5719 C   0  0  0  0  0  0  0  0  0  0  0  0
  -10.6746   -3.3228    0.8643 C   0  0  0  0  0  0  0  0  0  0  0  0
   -9.2271   -3.0966    1.3474 C   0  0  0  0  0  0  0  0  0  0  0  0
    1.0039    1.9031    0.0027 H   0  0  0  0  0  0  0  0  0  0  0  0
   -0.5459    1.8868   -0.8726 H   0  0  0  0  0  0  0  0  0  0  0  0
   -0.5289    1.8773    0.9072 H   0  0  0  0  0  0  0  0  0  0  0  0
    0.5123   -0.3556   -0.8948 H   0  0  0  0  0  0  0  0  0  0  0  0
    0.5293   -0.3651    0.8851 H   0  0  0  0  0  0  0  0  0  0  0  0
    0.6037   -2.2543   -0.0056 H   0  0  0  0  0  0  0  0  0  0  0  0
    0.3133   -4.6953   -0.0172 H   0  0  0  0  0  0  0  0  0  0  0  0
   -1.9422   -5.6762   -0.0111 H   0  0  0  0  0  0  0  0  0  0  0  0
   -3.9238   -4.2219    0.0061 H   0  0  0  0  0  0  0  0  0  0  0  0
   -7.6028   -3.7141    0.0492 H   0  0  0  0  0  0  0  0  0  0  0  0
   -9.6441   -2.0830   -1.4578 H   0  0  0  0  0  0  0  0  0  0  0  0
   -8.8285   -3.6054   -1.9342 H   0  0  0  0  0  0  0  0  0  0  0  0
  -11.4102   -3.6930   -1.1619 H   0  0  0  0  0  0  0  0  0  0  0  0
  -10.2791   -4.9443   -0.5492 H   0  0  0  0  0  0  0  0  0  0  0  0
  -11.2231   -2.3810    0.8486 H   0  0  0  0  0  0  0  0  0  0  0  0
  -11.1801   -4.0492    1.5007 H   0  0  0  0  0  0  0  0  0  0  0  0
   -8.8872   -3.9568    1.9240 H   0  0  0  0  0  0  0  0  0  0  0  0
   -9.1734   -2.1938    1.9559 H   0  0  0  0  0  0  0  0  0  0  0  0
  1  2  1  0  0  0  0
  1 25  1  0  0  0  0
  1 26  1  0  0  0  0
  1 27  1  0  0  0  0
  2  3  1  0  0  0  0
  2 28  1  0  0  0  0
  2 29  1  0  0  0  0
  3  4  1  0  0  0  0
  4  9  2  0  0  0  0
  4  5  1  0  0  0  0
  5  6  2  0  0  0  0
  5 30  1  0  0  0  0
  6  7  1  0  0  0  0
  6 31  1  0  0  0  0
  7  8  2  0  0  0  0
  7 32  1  0  0  0  0
  8  9  1  0  0  0  0
  8 33  1  0  0  0  0
  9 10  1  0  0  0  0
 10 15  2  0  0  0  0
 10 11  1  0  0  0  0
 11 12  2  0  0  0  0
 12 19  1  0  0  0  0
 12 13  1  0  0  0  0
 13 14  2  0  0  0  0
 13 17  1  0  0  0  0
 14 15  1  0  0  0  0
 14 16  1  0  0  0  0
 17 18  1  0  0  0  0
 18 19  2  0  0  0  0
 19 20  1  0  0  0  0
 20 24  1  0  0  0  0
 20 21  1  0  0  0  0
 20 34  1  0  0  0  0
 21 22  1  0  0  0  0
 21 35  1  0  0  0  0
 21 36  1  0  0  0  0
 22 23  1  0  0  0  0
 22 37  1  0  0  0  0
 22 38  1  0  0  0  0
 23 24  1  0  0  0  0
 23 39  1  0  0  0  0
 23 40  1  0  0  0  0
 24 41  1  0  0  0  0
 24 42  1  0  0  0  0
M  CHG  1  16  -1
M  END
$$$$
CHEMBL42779
  -OEChem-07121202283D

 58 61  0     0  0  0  0  0  0999 V2000
   -0.0187    1.5258    0.0104 C   0  0  0  0  0  0  0  0  0  0  0  0
    0.0021   -0.0041    0.0020 C   0  0  0  0  0  0  0  0  0  0  0  0
    0.7182   -0.4975   -1.2568 C   0  0  0  0  0  0  0  0  0  0  0  0
    0.7376   -1.9263   -1.2646 O   0  0  0  0  0  0  0  0  0  0  0  0
    1.3395   -2.5276   -2.3192 C   0  0  0  0  0  0  0  0  0  0  0  0
    1.9071   -1.7569   -3.3266 C   0  0  0  0  0  0  0  0  0  0  0  0
    2.5198   -2.3609   -4.4002 C   0  0  0  0  0  0  0  0  0  0  0  0
    2.5764   -3.7593   -4.4853 C   0  0  0  0  0  0  0  0  0  0  0  0
    2.0092   -4.5425   -3.4777 C   0  0  0  0  0  0  0  0  0  0  0  0
    1.3943   -3.9289   -2.3903 C   0  0  0  0  0  0  0  0  0  0  0  0
    0.7973   -4.7485   -1.3180 C   0  0  0  0  0  0  0  0  0  0  0  0
    0.2164   -4.1401   -0.3115 N   0  0  0  0  0  0  0  0  0  0  0  0
   -0.3455   -4.8204    0.6953 C   0  0  0  0  0  0  0  0  0  0  0  0
   -0.3150   -6.2253    0.6785 C   0  0  0  0  0  0  0  0  0  0  0  0
   -0.9689   -6.6706    1.8426 C   0  0  0  0  0  0  0  0  0  0  0  0
   -1.3664   -5.6263    2.5157 N   0  0  0  0  0  0  0  0  0  0  0  0
   -0.9967   -4.4605    1.8335 N   0  0  0  0  0  0  0  0  0  0  0  0
   -1.2650   -3.0884    2.2712 C   0  0  0  0  0  0  0  0  0  0  0  0
   -1.1751   -8.1087    2.2429 C   0  0  0  0  0  0  0  0  0  0  0  0
    0.3354   -6.8912   -0.4495 C   0  0  0  0  0  0  0  0  0  0  0  0
    0.8679   -6.1097   -1.4178 N   0  0  0  0  0  0  0  0  0  0  0  0
    0.3924   -8.1063   -0.5171 O   0  0  0  0  0  0  0  0  0  0  0  0
    3.2312   -4.4000   -5.6337 C   0  0  0  0  0  0  0  0  0  0  0  0
    3.2798   -5.6097   -5.7068 O   0  0  0  0  0  0  0  0  0  0  0  0
    3.8425   -3.5543   -6.7209 C   0  0  0  0  0  0  0  0  0  0  0  0
    4.4296   -4.4257   -7.7474 N   0  0  0  0  0  0  0  0  0  0  0  0
    5.5750   -5.1747   -7.2104 C   0  0  0  0  0  0  0  0  0  0  0  0
    6.1177   -6.1118   -8.2927 C   0  0  0  0  0  0  0  0  0  0  0  0
    6.4660   -5.3455   -9.4488 O   0  0  0  0  0  0  0  0  0  0  0  0
    5.3737   -4.6038   -9.9984 C   0  0  0  0  0  0  0  0  0  0  0  0
    4.8234   -3.6514   -8.9335 C   0  0  0  0  0  0  0  0  0  0  0  0
    1.0039    1.9031    0.0027 H   0  0  0  0  0  0  0  0  0  0  0  0
   -0.5459    1.8868   -0.8726 H   0  0  0  0  0  0  0  0  0  0  0  0
   -0.5289    1.8773    0.9072 H   0  0  0  0  0  0  0  0  0  0  0  0
    0.5293   -0.3651    0.8851 H   0  0  0  0  0  0  0  0  0  0  0  0
   -1.0205   -0.3814    0.0098 H   0  0  0  0  0  0  0  0  0  0  0  0
    0.1910   -0.1364   -2.1398 H   0  0  0  0  0  0  0  0  0  0  0  0
    1.7408   -0.1202   -1.2645 H   0  0  0  0  0  0  0  0  0  0  0  0
    1.8668   -0.6793   -3.2667 H   0  0  0  0  0  0  0  0  0  0  0  0
    2.9583   -1.7559   -5.1800 H   0  0  0  0  0  0  0  0  0  0  0  0
    2.0507   -5.6198   -3.5403 H   0  0  0  0  0  0  0  0  0  0  0  0
   -2.2253   -2.7611    1.8726 H   0  0  0  0  0  0  0  0  0  0  0  0
   -1.2928   -3.0534    3.3603 H   0  0  0  0  0  0  0  0  0  0  0  0
   -0.4767   -2.4299    1.9065 H   0  0  0  0  0  0  0  0  0  0  0  0
   -0.3310   -8.4425    2.8464 H   0  0  0  0  0  0  0  0  0  0  0  0
   -2.0937   -8.1963    2.8230 H   0  0  0  0  0  0  0  0  0  0  0  0
   -1.2497   -8.7276    1.3487 H   0  0  0  0  0  0  0  0  0  0  0  0
    3.0716   -2.9297   -7.1721 H   0  0  0  0  0  0  0  0  0  0  0  0
    4.6200   -2.9205   -6.2943 H   0  0  0  0  0  0  0  0  0  0  0  0
    6.3561   -4.4775   -6.9075 H   0  0  0  0  0  0  0  0  0  0  0  0
    5.2551   -5.7606   -6.3487 H   0  0  0  0  0  0  0  0  0  0  0  0
    7.0019   -6.6273   -7.9178 H   0  0  0  0  0  0  0  0  0  0  0  0
    5.3541   -6.8432   -8.5572 H   0  0  0  0  0  0  0  0  0  0  0  0
    5.7198   -4.0286  -10.8572 H   0  0  0  0  0  0  0  0  0  0  0  0
    4.5884   -5.2913  -10.3126 H   0  0  0  0  0  0  0  0  0  0  0  0
    3.9549   -3.1253   -9.3295 H   0  0  0  0  0  0  0  0  0  0  0  0
    5.5926   -2.9298   -8.6581 H   0  0  0  0  0  0  0  0  0  0  0  0
    1.3038   -6.5168   -2.1828 H   0  0  0  0  0  0  0  0  0  0  0  0
  1  2  1  0  0  0  0
  1 32  1  0  0  0  0
  1 33  1  0  0  0  0
  1 34  1  0  0  0  0
  2  3  1  0  0  0  0
  2 35  1  0  0  0  0
  2 36  1  0  0  0  0
  3  4  1  0  0  0  0
  3 37  1  0  0  0  0
  3 38  1  0  0  0  0
  4  5  1  0  0  0  0
  5 10  2  0  0  0  0
  5  6  1  0  0  0  0
  6  7  2  0  0  0  0
  6 39  1  0  0  0  0
  7  8  1  0  0  0  0
  7 40  1  0  0  0  0
  8  9  2  0  0  0  0
  8 23  1  0  0  0  0
  9 10  1  0  0  0  0
  9 41  1  0  0  0  0
 10 11  1  0  0  0  0
 11 21  1  0  0  0  0
 11 12  2  0  0  0  0
 12 13  1  0  0  0  0
 13 17  1  0  0  0  0
 13 14  2  0  0  0  0
 14 15  1  0  0  0  0
 14 20  1  0  0  0  0
 15 16  2  0  0  0  0
 15 19  1  0  0  0  0
 16 17  1  0  0  0  0
 17 18  1  0  0  0  0
 18 42  1  0  0  0  0
 18 43  1  0  0  0  0
 18 44  1  0  0  0  0
 19 45  1  0  0  0  0
 19 46  1  0  0  0  0
 19 47  1  0  0  0  0
 20 21  1  0  0  0  0
 20 22  2  0  0  0  0
 21 58  1  0  0  0  0
 23 24  2  0  0  0  0
 23 25  1  0  0  0  0
 25 26  1  0  0  0  0
 25 48  1  0  0  0  0
 25 49  1  0  0  0  0
 26 31  1  0  0  0  0
 26 27  1  0  0  0  0
 27 28  1  0  0  0  0
 27 50  1  0  0  0  0
 27 51  1  0  0  0  0
 28 29  1  0  0  0  0
 28 52  1  0  0  0  0
 28 53  1  0  0  0  0
 29 30  1  0  0  0  0
 30 31  1  0  0  0  0
 30 54  1  0  0  0  0
 30 55  1  0  0  0  0
 31 56  1  0  0  0  0
 31 57  1  0  0  0  0
M  END
$$$$
CHEMBL538896
  -OEChem-07121202283D

 38 40  0     0  0  0  0  0  0999 V2000
   -0.1852    1.5249    0.0937 C   0  0  0  0  0  0  0  0  0  0  0  0
   -0.1655   -0.0050    0.0869 C   0  0  0  0  0  0  0  0  0  0  0  0
    0.6341   -0.4994   -1.1202 C   0  0  0  0  0  0  0  0  0  0  0  0
    0.6529   -1.9642   -1.1267 N   0  0  0  0  0  0  0  0  0  0  0  0
    1.6475   -2.6185   -0.4739 C   0  0  0  0  0  0  0  0  0  0  0  0
    1.7279   -3.9633   -0.4379 C   0  0  0  0  0  0  0  0  0  0  0  0
    0.7530   -4.7532   -1.0970 C   0  0  0  0  0  0  0  0  0  0  0  0
    0.8085   -5.9722   -1.0759 O   0  0  0  0  0  0  0  0  0  0  0  0
   -0.3262   -4.0544   -1.8055 C   0  0  0  0  0  0  0  0  0  0  0  0
   -0.3386   -2.6456   -1.7881 C   0  0  0  0  0  0  0  0  0  0  0  0
   -1.3658   -1.9864   -2.4569 C   0  0  0  0  0  0  0  0  0  0  0  0
   -2.3354   -2.7404   -3.1060 C   0  0  0  0  0  0  0  0  0  0  0  0
   -2.2999   -4.0703   -3.0997 N   0  0  0  0  0  0  0  0  0  0  0  0
   -1.3388   -4.7441   -2.4889 C   0  0  0  0  0  0  0  0  0  0  0  0
   -1.3418   -6.1273   -2.5099 N   0  0  0  0  0  0  0  0  0  0  0  0
   -3.4344   -2.0477   -3.8210 C   0  0  0  0  0  0  0  0  0  0  0  0
   -3.4859   -0.6548   -3.8434 C   0  0  0  0  0  0  0  0  0  0  0  0
   -4.5111   -0.0156   -4.5104 C   0  0  0  0  0  0  0  0  0  0  0  0
   -5.4865   -0.7543   -5.1557 C   0  0  0  0  0  0  0  0  0  0  0  0
   -5.4405   -2.1367   -5.1368 C   0  0  0  0  0  0  0  0  0  0  0  0
   -4.4167   -2.7868   -4.4782 C   0  0  0  0  0  0  0  0  0  0  0  0
    0.8359    1.9011    0.1555 H   0  0  0  0  0  0  0  0  0  0  0  0
   -0.6507    1.8863   -0.8232 H   0  0  0  0  0  0  0  0  0  0  0  0
   -0.7548    1.8771    0.9537 H   0  0  0  0  0  0  0  0  0  0  0  0
    0.3000   -0.3665    1.0038 H   0  0  0  0  0  0  0  0  0  0  0  0
   -1.1867   -0.3812    0.0251 H   0  0  0  0  0  0  0  0  0  0  0  0
    0.1685   -0.1379   -2.0371 H   0  0  0  0  0  0  0  0  0  0  0  0
    1.6552   -0.1232   -1.0584 H   0  0  0  0  0  0  0  0  0  0  0  0
    2.4032   -2.0391    0.0357 H   0  0  0  0  0  0  0  0  0  0  0  0
    2.5376   -4.4404    0.0943 H   0  0  0  0  0  0  0  0  0  0  0  0
   -1.4086   -0.9074   -2.4708 H   0  0  0  0  0  0  0  0  0  0  0  0
   -0.5799   -6.6192   -2.1658 H   0  0  0  0  0  0  0  0  0  0  0  0
   -2.1058   -6.6052   -2.8688 H   0  0  0  0  0  0  0  0  0  0  0  0
   -2.7253   -0.0771   -3.3394 H   0  0  0  0  0  0  0  0  0  0  0  0
   -4.5520    1.0635   -4.5284 H   0  0  0  0  0  0  0  0  0  0  0  0
   -6.2873   -0.2498   -5.6758 H   0  0  0  0  0  0  0  0  0  0  0  0
   -6.2048   -2.7084   -5.6423 H   0  0  0  0  0  0  0  0  0  0  0  0
   -4.3791   -3.8661   -4.4682 H   0  0  0  0  0  0  0  0  0  0  0  0
  1  2  1  0  0  0  0
  1 22  1  0  0  0  0
  1 23  1  0  0  0  0
  1 24  1  0  0  0  0
  2  3  1  0  0  0  0
  2 25  1  0  0  0  0
  2 26  1  0  0  0  0
  3  4  1  0  0  0  0
  3 27  1  0  0  0  0
  3 28  1  0  0  0  0
  4 10  1  0  0  0  0
  4  5  1  0  0  0  0
  5  6  2  0  0  0  0
  5 29  1  0  0  0  0
  6  7  1  0  0  0  0
  6 30  1  0  0  0  0
  7  8  2  0  0  0  0
  7  9  1  0  0  0  0
  9 14  2  0  0  0  0
  9 10  1  0  0  0  0
 10 11  2  0  0  0  0
 11 12  1  0  0  0  0
 11 31  1  0  0  0  0
 12 13  2  0  0  0  0
 12 16  1  0  0  0  0
 13 14  1  0  0  0  0
 14 15  1  0  0  0  0
 15 32  1  0  0  0  0
 15 33  1  0  0  0  0
 16 21  2  0  0  0  0
 16 17  1  0  0  0  0
 17 18  2  0  0  0  0
 17 34  1  0  0  0  0
 18 19  1  0  0  0  0
 18 35  1  0  0  0  0
 19 20  2  0  0  0  0
 19 36  1  0  0  0  0
 20 21  1  0  0  0  0
 20 37  1  0  0  0  0
 21 38  1  0  0  0  0
M  END
$$$$
CHEMBL352722
  -OEChem-07121202283D

 43 45  0     0  0  0  0  0  0999 V2000
   -0.0187    1.5258    0.0104 C   0  0  0  0  0  0  0  0  0  0  0  0
    0.0021   -0.0041    0.0020 C   0  0  0  0  0  0  0  0  0  0  0  0
    0.7182   -0.4975   -1.2568 C   0  0  0  0  0  0  0  0  0  0  0  0
    0.7386   -2.0043   -1.2651 C   0  0  0  0  0  0  0  0  0  0  0  0
    1.6787   -2.7529   -0.7375 N   0  0  0  0  0  0  0  0  0  0  0  0
    1.3866   -4.0413   -0.9211 C   0  0  0  0  0  0  0  0  0  0  0  0
    0.1960   -4.0985   -1.6021 C   0  0  0  0  0  0  0  0  0  0  0  0
   -0.2036   -2.7889   -1.8075 N   0  0  0  0  0  0  0  0  0  0  0  0
   -1.4027   -2.5429   -2.4823 N   0  0  0  0  0  0  0  0  0  0  0  0
   -2.1451   -3.5211   -2.9147 C   0  0  0  0  0  0  0  0  0  0  0  0
   -1.8014   -4.8460   -2.7370 N   0  0  0  0  0  0  0  0  0  0  0  0
   -2.3837   -5.5441   -3.0753 H   0  0  0  0  0  0  0  0  0  0  0  0
   -0.6544   -5.1776   -2.1025 C   0  0  0  0  0  0  0  0  0  0  0  0
   -0.3442   -6.3438   -1.9407 O   0  0  0  0  0  0  0  0  0  0  0  0
   -3.4025   -3.2011   -3.6216 C   0  0  0  0  0  0  0  0  0  0  0  0
   -4.2233   -4.2270   -4.0923 C   0  0  0  0  0  0  0  0  0  0  0  0
   -5.3956   -3.9221   -4.7514 C   0  0  0  0  0  0  0  0  0  0  0  0
   -5.7625   -2.6016   -4.9484 C   0  0  0  0  0  0  0  0  0  0  0  0
   -4.9584   -1.5773   -4.4871 C   0  0  0  0  0  0  0  0  0  0  0  0
   -3.7798   -1.8669   -3.8177 C   0  0  0  0  0  0  0  0  0  0  0  0
   -2.9915   -0.8612   -3.3589 O   0  0  0  0  0  0  0  0  0  0  0  0
   -3.4407    0.4746   -3.5956 C   0  0  0  0  0  0  0  0  0  0  0  0
   -2.4300    1.4636   -3.0113 C   0  0  0  0  0  0  0  0  0  0  0  0
    2.2115   -5.2172   -0.4653 C   0  0  0  0  0  0  0  0  0  0  0  0
    1.0039    1.9031    0.0027 H   0  0  0  0  0  0  0  0  0  0  0  0
   -0.5459    1.8868   -0.8726 H   0  0  0  0  0  0  0  0  0  0  0  0
   -0.5289    1.8773    0.9072 H   0  0  0  0  0  0  0  0  0  0  0  0
    0.5293   -0.3651    0.8851 H   0  0  0  0  0  0  0  0  0  0  0  0
   -1.0205   -0.3814    0.0098 H   0  0  0  0  0  0  0  0  0  0  0  0
    0.1910   -0.1364   -2.1398 H   0  0  0  0  0  0  0  0  0  0  0  0
    1.7408   -0.1202   -1.2645 H   0  0  0  0  0  0  0  0  0  0  0  0
   -3.9405   -5.2583   -3.9410 H   0  0  0  0  0  0  0  0  0  0  0  0
   -6.0301   -4.7166   -5.1156 H   0  0  0  0  0  0  0  0  0  0  0  0
   -6.6820   -2.3711   -5.4658 H   0  0  0  0  0  0  0  0  0  0  0  0
   -5.2508   -0.5496   -4.6443 H   0  0  0  0  0  0  0  0  0  0  0  0
   -3.5339    0.6418   -4.6687 H   0  0  0  0  0  0  0  0  0  0  0  0
   -4.4100    0.6217   -3.1194 H   0  0  0  0  0  0  0  0  0  0  0  0
   -2.3368    1.2964   -1.9383 H   0  0  0  0  0  0  0  0  0  0  0  0
   -1.4607    1.3165   -3.4876 H   0  0  0  0  0  0  0  0  0  0  0  0
   -2.7726    2.4825   -3.1919 H   0  0  0  0  0  0  0  0  0  0  0  0
    1.9006   -5.5126    0.5368 H   0  0  0  0  0  0  0  0  0  0  0  0
    2.0655   -6.0513   -1.1517 H   0  0  0  0  0  0  0  0  0  0  0  0
    3.2651   -4.9383   -0.4514 H   0  0  0  0  0  0  0  0  0  0  0  0
  1  2  1  0  0  0  0
  1 25  1  0  0  0  0
  1 26  1  0  0  0  0
  1 27  1  0  0  0  0
  2  3  1  0  0  0  0
  2 28  1  0  0  0  0
  2 29  1  0  0  0  0
  3  4  1  0  0  0  0
  3 30  1  0  0  0  0
  3 31  1  0  0  0  0
  4  8  1  0  0  0  0
  4  5  2  0  0  0  0
  5  6  1  0  0  0  0
  6  7  2  0  0  0  0
  6 24  1  0  0  0  0
  7 13  1  0  0  0  0
  7  8  1  0  0  0  0
  8  9  1  0  0  0  0
  9 10  2  0  0  0  0
 10 11  1  0  0  0  0
 10 15  1  0  0  0  0
 11 12  1  0  0  0  0
 11 13  1  0  0  0  0
 13 14  2  0  0  0  0
 15 20  2  0  0  0  0
 15 16  1  0  0  0  0
 16 17  2  0  0  0  0
 16 32  1  0  0  0  0
 17 18  1  0  0  0  0
 17 33  1  0  0  0  0
 18 19  2  0  0  0  0
 18 34  1  0  0  0  0
 19 20  1  0  0  0  0
 19 35  1  0  0  0  0
 20 21  1  0  0  0  0
 21 22  1  0  0  0  0
 22 23  1  0  0  0  0
 22 36  1  0  0  0  0
 22 37  1  0  0  0  0
 23 38  1  0  0  0  0
 23 39  1  0  0  0  0
 23 40  1  0  0  0  0
 24 41  1  0  0  0  0
 24 42  1  0  0  0  0
 24 43  1  0  0  0  0
M  END
$$$$
CHEMBL352722
  -OEChem-07121202283D

 42 44  0     0  0  0  0  0  0999 V2000
   -0.0187    1.5258    0.0104 C   0  0  0  0  0  0  0  0  0  0  0  0
    0.0021   -0.0041    0.0020 C   0  0  0  0  0  0  0  0  0  0  0  0
    0.7182   -0.4975   -1.2568 C   0  0  0  0  0  0  0  0  0  0  0  0
    0.7386   -2.0043   -1.2651 C   0  0  0  0  0  0  0  0  0  0  0  0
    1.6792   -2.7531   -0.7373 N   0  0  0  0  0  0  0  0  0  0  0  0
    1.3887   -4.0405   -0.9204 C   0  0  0  0  0  0  0  0  0  0  0  0
    0.1944   -4.0996   -1.6040 C   0  0  0  0  0  0  0  0  0  0  0  0
   -0.2029   -2.7882   -1.8071 N   0  0  0  0  0  0  0  0  0  0  0  0
   -1.4051   -2.5525   -2.4832 N   0  0  0  0  0  0  0  0  0  0  0  0
   -2.1270   -3.5658   -2.9046 C   0  0  0  0  0  0  0  0  0  0  0  0
   -1.7515   -4.8382   -2.7093 N   0  0  0  0  0  0  0  0  0  0  0  0
   -0.6277   -5.1403   -2.0878 C   0  0  0  0  0  0  0  0  0  0  0  0
   -0.2743   -6.4333   -1.9034 O   0  5  0  0  0  0  0  0  0  0  0  0
   -3.3972   -3.2941   -3.6181 C   0  0  0  0  0  0  0  0  0  0  0  0
   -4.1857   -4.3504   -4.0710 C   0  0  0  0  0  0  0  0  0  0  0  0
   -5.3673   -4.0920   -4.7347 C   0  0  0  0  0  0  0  0  0  0  0  0
   -5.7735   -2.7869   -4.9531 C   0  0  0  0  0  0  0  0  0  0  0  0
   -4.9997   -1.7321   -4.5090 C   0  0  0  0  0  0  0  0  0  0  0  0
   -3.8132   -1.9765   -3.8352 C   0  0  0  0  0  0  0  0  0  0  0  0
   -3.0547   -0.9407   -3.3928 O   0  0  0  0  0  0  0  0  0  0  0  0
   -3.5429    0.3774   -3.6506 C   0  0  0  0  0  0  0  0  0  0  0  0
   -2.5618    1.4048   -3.0827 C   0  0  0  0  0  0  0  0  0  0  0  0
    2.2146   -5.2154   -0.4638 C   0  0  0  0  0  0  0  0  0  0  0  0
    1.0039    1.9031    0.0027 H   0  0  0  0  0  0  0  0  0  0  0  0
   -0.5459    1.8868   -0.8726 H   0  0  0  0  0  0  0  0  0  0  0  0
   -0.5289    1.8773    0.9072 H   0  0  0  0  0  0  0  0  0  0  0  0
    0.5293   -0.3651    0.8851 H   0  0  0  0  0  0  0  0  0  0  0  0
   -1.0205   -0.3814    0.0098 H   0  0  0  0  0  0  0  0  0  0  0  0
    0.1910   -0.1364   -2.1398 H   0  0  0  0  0  0  0  0  0  0  0  0
    1.7408   -0.1202   -1.2645 H   0  0  0  0  0  0  0  0  0  0  0  0
   -3.8720   -5.3700   -3.9029 H   0  0  0  0  0  0  0  0  0  0  0  0
   -5.9774   -4.9112   -5.0856 H   0  0  0  0  0  0  0  0  0  0  0  0
   -6.6996   -2.5922   -5.4734 H   0  0  0  0  0  0  0  0  0  0  0  0
   -5.3219   -0.7160   -4.6828 H   0  0  0  0  0  0  0  0  0  0  0  0
   -3.6410    0.5246   -4.7262 H   0  0  0  0  0  0  0  0  0  0  0  0
   -4.5162    0.5036   -3.1763 H   0  0  0  0  0  0  0  0  0  0  0  0
   -1.5885    1.2786   -3.5569 H   0  0  0  0  0  0  0  0  0  0  0  0
   -2.9341    2.4102   -3.2793 H   0  0  0  0  0  0  0  0  0  0  0  0
   -2.4636    1.2576   -2.0071 H   0  0  0  0  0  0  0  0  0  0  0  0
    1.9034   -5.5108    0.5382 H   0  0  0  0  0  0  0  0  0  0  0  0
    2.0699   -6.0499   -1.1500 H   0  0  0  0  0  0  0  0  0  0  0  0
    3.2679   -4.9354   -0.4494 H   0  0  0  0  0  0  0  0  0  0  0  0
  1  2  1  0  0  0  0
  1 24  1  0  0  0  0
  1 25  1  0  0  0  0
  1 26  1  0  0  0  0
  2  3  1  0  0  0  0
  2 27  1  0  0  0  0
  2 28  1  0  0  0  0
  3  4  1  0  0  0  0
  3 29  1  0  0  0  0
  3 30  1  0  0  0  0
  4  8  1  0  0  0  0
  4  5  2  0  0  0  0
  5  6  1  0  0  0  0
  6  7  2  0  0  0  0
  6 23  1  0  0  0  0
  7 12  1  0  0  0  0
  7  8  1  0  0  0  0
  8  9  1  0  0  0  0
  9 10  2  0  0  0  0
 10 11  1  0  0  0  0
 10 14  1  0  0  0  0
 11 12  2  0  0  0  0
 12 13  1  0  0  0  0
 14 19  2  0  0  0  0
 14 15  1  0  0  0  0
 15 16  2  0  0  0  0
 15 31  1  0  0  0  0
 16 17  1  0  0  0  0
 16 32  1  0  0  0  0
 17 18  2  0  0  0  0
 17 33  1  0  0  0  0
 18 19  1  0  0  0  0
 18 34  1  0  0  0  0
 19 20  1  0  0  0  0
 20 21  1  0  0  0  0
 21 22  1  0  0  0  0
 21 35  1  0  0  0  0
 21 36  1  0  0  0  0
 22 37  1  0  0  0  0
 22 38  1  0  0  0  0
 22 39  1  0  0  0  0
 23 40  1  0  0  0  0
 23 41  1  0  0  0  0
 23 42  1  0  0  0  0
M  CHG  1  13  -1
M  END
$$$$
CHEMBL504620
  -OEChem-07121202283D

 76 81  0     0  0  0  0  0  0999 V2000
   -0.0187    1.5258    0.0104 C   0  0  0  0  0  0  0  0  0  0  0  0
    0.0021   -0.0041    0.0020 C   0  0  0  0  0  0  0  0  0  0  0  0
    0.7182   -0.4975   -1.2568 C   0  0  0  0  0  0  0  0  0  0  0  0
    0.7386   -2.0043   -1.2651 C   0  0  0  0  0  0  0  0  0  0  0  0
    1.7436   -2.8145   -0.7017 C   0  0  0  0  0  0  0  0  0  0  0  0
    1.3716   -4.1454   -0.9309 C   0  0  0  0  0  0  0  0  0  0  0  0
    2.2155   -5.1793   -0.4631 C   0  0  0  0  0  0  0  0  0  0  0  0
    1.9272   -6.3498   -0.6430 O   0  0  0  0  0  0  0  0  0  0  0  0
    3.3497   -4.8379    0.1877 N   0  0  0  0  0  0  0  0  0  0  0  0
    3.9439   -5.5300    0.5176 H   0  0  0  0  0  0  0  0  0  0  0  0
    3.6639   -3.5203    0.3833 C   0  0  0  0  0  0  0  0  0  0  0  0
    2.8908   -2.5515   -0.0437 N   0  0  0  0  0  0  0  0  0  0  0  0
    4.9101   -3.1798    1.0980 C   0  0  0  0  0  0  0  0  0  0  0  0
    5.7536   -4.1922    1.5597 C   0  0  0  0  0  0  0  0  0  0  0  0
    6.9158   -3.8678    2.2265 C   0  0  0  0  0  0  0  0  0  0  0  0
    7.2508   -2.5412    2.4411 C   0  0  0  0  0  0  0  0  0  0  0  0
    6.4250   -1.5305    1.9894 C   0  0  0  0  0  0  0  0  0  0  0  0
    5.2556   -1.8391    1.3116 C   0  0  0  0  0  0  0  0  0  0  0  0
    4.4461   -0.8467    0.8623 O   0  0  0  0  0  0  0  0  0  0  0  0
    4.8632    0.4961    1.1168 C   0  0  0  0  0  0  0  0  0  0  0  0
    3.8319    1.4685    0.5407 C   0  0  0  0  0  0  0  0  0  0  0  0
    7.9793   -5.1464    2.8085 S   0  0  0  0  0  0  0  0  0  0  0  0
    8.7312   -4.5930    3.8798 O   0  0  0  0  0  0  0  0  0  0  0  0
    7.1730   -6.3063    2.9631 O   0  0  0  0  0  0  0  0  0  0  0  0
    9.0568   -5.4772    1.5953 N   0  0  0  0  0  0  0  0  0  0  0  0
    8.7494   -6.4926    0.5782 C   0  0  0  0  0  0  0  0  0  0  0  0
    8.8652   -5.8478   -0.8085 C   0  0  0  0  0  0  0  0  0  0  0  0
   10.1457   -5.1310   -0.8877 N   0  0  0  0  0  0  0  0  0  0  0  0
   10.4531   -4.1157    0.1294 C   0  0  0  0  0  0  0  0  0  0  0  0
   10.3349   -4.7565    1.5129 C   0  0  0  0  0  0  0  0  0  0  0  0
   11.0522   -5.4093   -1.9084 C   0  0  0  0  0  0  0  0  0  0  0  0
   10.9994   -4.7100   -3.0956 C   0  0  0  0  0  0  0  0  0  0  0  0
   11.9004   -4.9800   -4.1209 C   0  0  0  0  0  0  0  0  0  0  0  0
   12.8566   -5.9396   -3.9821 C   0  0  0  0  0  0  0  0  0  0  0  0
   12.9446   -6.6751   -2.7881 C   0  0  0  0  0  0  0  0  0  0  0  0
   12.0366   -6.4057   -1.7345 C   0  0  0  0  0  0  0  0  0  0  0  0
   12.1290   -7.1379   -0.5406 C   0  0  0  0  0  0  0  0  0  0  0  0
   13.0912   -8.0921   -0.4079 C   0  0  0  0  0  0  0  0  0  0  0  0
   13.9887   -8.3538   -1.4413 C   0  0  0  0  0  0  0  0  0  0  0  0
   13.9211   -7.6718   -2.6172 C   0  0  0  0  0  0  0  0  0  0  0  0
    0.1842   -4.1164   -1.6082 N   0  0  0  0  0  0  0  0  0  0  0  0
   -0.1751   -2.7746   -1.7907 N   0  0  0  0  0  0  0  0  0  0  0  0
   -0.5794   -5.2824   -2.0596 C   0  0  0  0  0  0  0  0  0  0  0  0
    1.0039    1.9031    0.0027 H   0  0  0  0  0  0  0  0  0  0  0  0
   -0.5459    1.8868   -0.8726 H   0  0  0  0  0  0  0  0  0  0  0  0
   -0.5289    1.8773    0.9072 H   0  0  0  0  0  0  0  0  0  0  0  0
    0.5293   -0.3651    0.8851 H   0  0  0  0  0  0  0  0  0  0  0  0
   -1.0205   -0.3814    0.0098 H   0  0  0  0  0  0  0  0  0  0  0  0
    0.1910   -0.1364   -2.1398 H   0  0  0  0  0  0  0  0  0  0  0  0
    1.7408   -0.1202   -1.2645 H   0  0  0  0  0  0  0  0  0  0  0  0
    5.4957   -5.2279    1.3950 H   0  0  0  0  0  0  0  0  0  0  0  0
    8.1628   -2.2958    2.9650 H   0  0  0  0  0  0  0  0  0  0  0  0
    6.6926   -0.4983    2.1608 H   0  0  0  0  0  0  0  0  0  0  0  0
    4.9489    0.6524    2.1922 H   0  0  0  0  0  0  0  0  0  0  0  0
    5.8306    0.6715    0.6460 H   0  0  0  0  0  0  0  0  0  0  0  0
    4.1502    2.4927    0.7349 H   0  0  0  0  0  0  0  0  0  0  0  0
    3.7463    1.3123   -0.5346 H   0  0  0  0  0  0  0  0  0  0  0  0
    2.8646    1.2931    1.0115 H   0  0  0  0  0  0  0  0  0  0  0  0
    9.4578   -7.3171    0.6586 H   0  0  0  0  0  0  0  0  0  0  0  0
    7.7349   -6.8629    0.7259 H   0  0  0  0  0  0  0  0  0  0  0  0
    8.8309   -6.6214   -1.5757 H   0  0  0  0  0  0  0  0  0  0  0  0
    8.0437   -5.1466   -0.9557 H   0  0  0  0  0  0  0  0  0  0  0  0
   11.4676   -3.7453   -0.0183 H   0  0  0  0  0  0  0  0  0  0  0  0
    9.7447   -3.2912    0.0490 H   0  0  0  0  0  0  0  0  0  0  0  0
   10.3672   -3.9805    2.2778 H   0  0  0  0  0  0  0  0  0  0  0  0
   11.1587   -5.4545    1.6614 H   0  0  0  0  0  0  0  0  0  0  0  0
   10.2500   -3.9443   -3.2312 H   0  0  0  0  0  0  0  0  0  0  0  0
   11.8402   -4.4195   -5.0421 H   0  0  0  0  0  0  0  0  0  0  0  0
   13.5468   -6.1354   -4.7894 H   0  0  0  0  0  0  0  0  0  0  0  0
   11.4406   -6.9452    0.2689 H   0  0  0  0  0  0  0  0  0  0  0  0
   13.1601   -8.6541    0.5118 H   0  0  0  0  0  0  0  0  0  0  0  0
   14.7431   -9.1155   -1.3106 H   0  0  0  0  0  0  0  0  0  0  0  0
   14.6226   -7.8860   -3.4099 H   0  0  0  0  0  0  0  0  0  0  0  0
   -1.2781   -5.5834   -1.2791 H   0  0  0  0  0  0  0  0  0  0  0  0
   -1.1323   -5.0268   -2.9634 H   0  0  0  0  0  0  0  0  0  0  0  0
    0.1042   -6.1043   -2.2721 H   0  0  0  0  0  0  0  0  0  0  0  0
  1  2  1  0  0  0  0
  1 44  1  0  0  0  0
  1 45  1  0  0  0  0
  1 46  1  0  0  0  0
  2  3  1  0  0  0  0
  2 47  1  0  0  0  0
  2 48  1  0  0  0  0
  3  4  1  0  0  0  0
  3 49  1  0  0  0  0
  3 50  1  0  0  0  0
  4 42  2  0  0  0  0
  4  5  1  0  0  0  0
  5 12  1  0  0  0  0
  5  6  2  0  0  0  0
  6  7  1  0  0  0  0
  6 41  1  0  0  0  0
  7  8  2  0  0  0  0
  7  9  1  0  0  0  0
  9 10  1  0  0  0  0
  9 11  1  0  0  0  0
 11 12  2  0  0  0  0
 11 13  1  0  0  0  0
 13 18  2  0  0  0  0
 13 14  1  0  0  0  0
 14 15  2  0  0  0  0
 14 51  1  0  0  0  0
 15 16  1  0  0  0  0
 15 22  1  0  0  0  0
 16 17  2  0  0  0  0
 16 52  1  0  0  0  0
 17 18  1  0  0  0  0
 17 53  1  0  0  0  0
 18 19  1  0  0  0  0
 19 20  1  0  0  0  0
 20 21  1  0  0  0  0
 20 54  1  0  0  0  0
 20 55  1  0  0  0  0
 21 56  1  0  0  0  0
 21 57  1  0  0  0  0
 21 58  1  0  0  0  0
 22 23  2  0  0  0  0
 22 24  2  0  0  0  0
 22 25  1  0  0  0  0
 25 30  1  0  0  0  0
 25 26  1  0  0  0  0
 26 27  1  0  0  0  0
 26 59  1  0  0  0  0
 26 60  1  0  0  0  0
 27 28  1  0  0  0  0
 27 61  1  0  0  0  0
 27 62  1  0  0  0  0
 28 29  1  0  0  0  0
 28 31  1  0  0  0  0
 29 30  1  0  0  0  0
 29 63  1  0  0  0  0
 29 64  1  0  0  0  0
 30 65  1  0  0  0  0
 30 66  1  0  0  0  0
 31 36  2  0  0  0  0
 31 32  1  0  0  0  0
 32 33  2  0  0  0  0
 32 67  1  0  0  0  0
 33 34  1  0  0  0  0
 33 68  1  0  0  0  0
 34 35  2  0  0  0  0
 34 69  1  0  0  0  0
 35 40  1  0  0  0  0
 35 36  1  0  0  0  0
 36 37  1  0  0  0  0
 37 38  2  0  0  0  0
 37 70  1  0  0  0  0
 38 39  1  0  0  0  0
 38 71  1  0  0  0  0
 39 40  2  0  0  0  0
 39 72  1  0  0  0  0
 40 73  1  0  0  0  0
 41 42  1  0  0  0  0
 41 43  1  0  0  0  0
 43 74  1  0  0  0  0
 43 75  1  0  0  0  0
 43 76  1  0  0  0  0
M  END
$$$$
CHEMBL504620
  -OEChem-07121202283D

 76 81  0     0  0  0  0  0  0999 V2000
   -0.0187    1.5258    0.0104 C   0  0  0  0  0  0  0  0  0  0  0  0
    0.0021   -0.0041    0.0020 C   0  0  0  0  0  0  0  0  0  0  0  0
    0.7421   -0.5109    1.2415 C   0  0  0  0  0  0  0  0  0  0  0  0
    0.7625   -2.0177    1.2333 C   0  0  0  0  0  0  0  0  0  0  0  0
   -0.2086   -2.8492    1.8019 C   0  0  0  0  0  0  0  0  0  0  0  0
    0.1884   -4.1649    1.5734 C   0  0  0  0  0  0  0  0  0  0  0  0
   -0.6644   -5.2444    2.0741 C   0  0  0  0  0  0  0  0  0  0  0  0
   -0.3574   -6.4128    1.8983 O   0  0  0  0  0  0  0  0  0  0  0  0
   -1.7907   -4.9239    2.7310 N   0  0  0  0  0  0  0  0  0  0  0  0
   -2.1366   -3.6698    2.9297 C   0  0  0  0  0  0  0  0  0  0  0  0
   -1.3868   -2.6245    2.4892 N   0  0  0  0  0  0  0  0  0  0  0  0
   -3.3872   -3.3868    3.6592 C   0  0  0  0  0  0  0  0  0  0  0  0
   -3.7870   -2.0670    3.8825 C   0  0  0  0  0  0  0  0  0  0  0  0
   -4.9566   -1.8094    4.5643 C   0  0  0  0  0  0  0  0  0  0  0  0
   -5.7385   -2.8538    5.0302 C   0  0  0  0  0  0  0  0  0  0  0  0
   -5.3547   -4.1630    4.8167 C   0  0  0  0  0  0  0  0  0  0  0  0
   -4.1840   -4.4406    4.1271 C   0  0  0  0  0  0  0  0  0  0  0  0
   -3.8087   -5.7265    3.9114 O   0  0  0  0  0  0  0  0  0  0  0  0
   -4.6710   -6.7476    4.4174 C   0  0  0  0  0  0  0  0  0  0  0  0
   -4.0875   -8.1212    4.0803 C   0  0  0  0  0  0  0  0  0  0  0  0
   -5.4596   -0.1443    4.8451 S   0  0  0  0  0  0  0  0  0  0  0  0
   -6.3121   -0.1638    5.9818 O   0  0  0  0  0  0  0  0  0  0  0  0
   -4.2829    0.6504    4.7890 O   0  0  0  0  0  0  0  0  0  0  0  0
   -6.3977    0.3077    3.5575 N   0  0  0  0  0  0  0  0  0  0  0  0
   -5.7900    0.9197    2.3676 C   0  0  0  0  0  0  0  0  0  0  0  0
   -6.1924    0.1001    1.1353 C   0  0  0  0  0  0  0  0  0  0  0  0
   -7.6476   -0.1041    1.1618 N   0  0  0  0  0  0  0  0  0  0  0  0
   -8.2553   -0.7162    2.3518 C   0  0  0  0  0  0  0  0  0  0  0  0
   -7.8522    0.0983    3.5818 C   0  0  0  0  0  0  0  0  0  0  0  0
   -8.4368    0.2760    0.0785 C   0  0  0  0  0  0  0  0  0  0  0  0
   -8.6931   -0.6148   -0.9422 C   0  0  0  0  0  0  0  0  0  0  0  0
   -9.4805   -0.2451   -2.0282 C   0  0  0  0  0  0  0  0  0  0  0  0
  -10.0185    1.0029   -2.1141 C   0  0  0  0  0  0  0  0  0  0  0  0
   -9.7816    1.9409   -1.0951 C   0  0  0  0  0  0  0  0  0  0  0  0
   -8.9863    1.5747    0.0188 C   0  0  0  0  0  0  0  0  0  0  0  0
   -8.7548    2.5113    1.0382 C   0  0  0  0  0  0  0  0  0  0  0  0
   -9.3006    3.7554    0.9472 C   0  0  0  0  0  0  0  0  0  0  0  0
  -10.0880    4.1147   -0.1449 C   0  0  0  0  0  0  0  0  0  0  0  0
  -10.3237    3.2364   -1.1576 C   0  0  0  0  0  0  0  0  0  0  0  0
    1.3662   -4.1143    0.8861 N   0  0  0  0  0  0  0  0  0  0  0  0
    1.6881   -2.7642    0.6884 N   0  0  0  0  0  0  0  0  0  0  0  0
    2.1511   -5.2649    0.4317 C   0  0  0  0  0  0  0  0  0  0  0  0
    1.0039    1.9031    0.0027 H   0  0  0  0  0  0  0  0  0  0  0  0
   -0.5459    1.8868   -0.8726 H   0  0  0  0  0  0  0  0  0  0  0  0
   -0.5289    1.8773    0.9072 H   0  0  0  0  0  0  0  0  0  0  0  0
   -1.0205   -0.3814    0.0098 H   0  0  0  0  0  0  0  0  0  0  0  0
    0.5123   -0.3556   -0.8948 H   0  0  0  0  0  0  0  0  0  0  0  0
    1.7647   -0.1336    1.2338 H   0  0  0  0  0  0  0  0  0  0  0  0
    0.2319   -0.1594    2.1383 H   0  0  0  0  0  0  0  0  0  0  0  0
   -3.1802   -1.2497    3.5217 H   0  0  0  0  0  0  0  0  0  0  0  0
   -6.6534   -2.6429    5.5638 H   0  0  0  0  0  0  0  0  0  0  0  0
   -5.9692   -4.9718    5.1835 H   0  0  0  0  0  0  0  0  0  0  0  0
   -4.7590   -6.6457    5.4991 H   0  0  0  0  0  0  0  0  0  0  0  0
   -5.6564   -6.6497    3.9619 H   0  0  0  0  0  0  0  0  0  0  0  0
   -4.7452   -8.9000    4.4663 H   0  0  0  0  0  0  0  0  0  0  0  0
   -3.9995   -8.2230    2.9987 H   0  0  0  0  0  0  0  0  0  0  0  0
   -3.1021   -8.2191    4.5358 H   0  0  0  0  0  0  0  0  0  0  0  0
   -6.1486    1.9433    2.2592 H   0  0  0  0  0  0  0  0  0  0  0  0
   -4.7048    0.9184    2.4693 H   0  0  0  0  0  0  0  0  0  0  0  0
   -5.9153    0.6405    0.2301 H   0  0  0  0  0  0  0  0  0  0  0  0
   -5.6870   -0.8654    1.1571 H   0  0  0  0  0  0  0  0  0  0  0  0
   -9.3405   -0.7149    2.2500 H   0  0  0  0  0  0  0  0  0  0  0  0
   -7.8968   -1.7398    2.4602 H   0  0  0  0  0  0  0  0  0  0  0  0
   -8.1285   -0.4454    4.4852 H   0  0  0  0  0  0  0  0  0  0  0  0
   -8.3609    1.0621    3.5618 H   0  0  0  0  0  0  0  0  0  0  0  0
   -8.2776   -1.6107   -0.8984 H   0  0  0  0  0  0  0  0  0  0  0  0
   -9.6677   -0.9596   -2.8161 H   0  0  0  0  0  0  0  0  0  0  0  0
  -10.6265    1.2717   -2.9652 H   0  0  0  0  0  0  0  0  0  0  0  0
   -8.1471    2.2463    1.8908 H   0  0  0  0  0  0  0  0  0  0  0  0
   -9.1209    4.4741    1.7331 H   0  0  0  0  0  0  0  0  0  0  0  0
  -10.5099    5.1077   -0.1928 H   0  0  0  0  0  0  0  0  0  0  0  0
  -10.9351    3.5289   -1.9985 H   0  0  0  0  0  0  0  0  0  0  0  0
    1.8279   -5.5530   -0.5686 H   0  0  0  0  0  0  0  0  0  0  0  0
    3.2077   -4.9979    0.4094 H   0  0  0  0  0  0  0  0  0  0  0  0
    2.0017   -6.0998    1.1164 H   0  0  0  0  0  0  0  0  0  0  0  0
   -1.6804   -1.7156    2.6583 H   0  0  0  0  0  0  0  0  0  0  0  0
  1  2  1  0  0  0  0
  1 43  1  0  0  0  0
  1 44  1  0  0  0  0
  1 45  1  0  0  0  0
  2  3  1  0  0  0  0
  2 46  1  0  0  0  0
  2 47  1  0  0  0  0
  3  4  1  0  0  0  0
  3 48  1  0  0  0  0
  3 49  1  0  0  0  0
  4 41  2  0  0  0  0
  4  5  1  0  0  0  0
  5 11  1  0  0  0  0
  5  6  2  0  0  0  0
  6  7  1  0  0  0  0
  6 40  1  0  0  0  0
  7  8  2  0  0  0  0
  7  9  1  0  0  0  0
  9 10  2  0  0  0  0
 10 11  1  0  0  0  0
 10 12  1  0  0  0  0
 11 76  1  0  0  0  0
 12 17  2  0  0  0  0
 12 13  1  0  0  0  0
 13 14  2  0  0  0  0
 13 50  1  0  0  0  0
 14 15  1  0  0  0  0
 14 21  1  0  0  0  0
 15 16  2  0  0  0  0
 15 51  1  0  0  0  0
 16 17  1  0  0  0  0
 16 52  1  0  0  0  0
 17 18  1  0  0  0  0
 18 19  1  0  0  0  0
 19 20  1  0  0  0  0
 19 53  1  0  0  0  0
 19 54  1  0  0  0  0
 20 55  1  0  0  0  0
 20 56  1  0  0  0  0
 20 57  1  0  0  0  0
 21 22  2  0  0  0  0
 21 23  2  0  0  0  0
 21 24  1  0  0  0  0
 24 29  1  0  0  0  0
 24 25  1  0  0  0  0
 25 26  1  0  0  0  0
 25 58  1  0  0  0  0
 25 59  1  0  0  0  0
 26 27  1  0  0  0  0
 26 60  1  0  0  0  0
 26 61  1  0  0  0  0
 27 28  1  0  0  0  0
 27 30  1  0  0  0  0
 28 29  1  0  0  0  0
 28 62  1  0  0  0  0
 28 63  1  0  0  0  0
 29 64  1  0  0  0  0
 29 65  1  0  0  0  0
 30 35  2  0  0  0  0
 30 31  1  0  0  0  0
 31 32  2  0  0  0  0
 31 66  1  0  0  0  0
 32 33  1  0  0  0  0
 32 67  1  0  0  0  0
 33 34  2  0  0  0  0
 33 68  1  0  0  0  0
 34 39  1  0  0  0  0
 34 35  1  0  0  0  0
 35 36  1  0  0  0  0
 36 37  2  0  0  0  0
 36 69  1  0  0  0  0
 37 38  1  0  0  0  0
 37 70  1  0  0  0  0
 38 39  2  0  0  0  0
 38 71  1  0  0  0  0
 39 72  1  0  0  0  0
 40 41  1  0  0  0  0
 40 42  1  0  0  0  0
 42 73  1  0  0  0  0
 42 74  1  0  0  0  0
 42 75  1  0  0  0  0
M  END
$$$$
CHEMBL504620
  -OEChem-07121202283D

 75 80  0     0  0  0  0  0  0999 V2000
   -0.0187    1.5258    0.0104 C   0  0  0  0  0  0  0  0  0  0  0  0
    0.0021   -0.0041    0.0020 C   0  0  0  0  0  0  0  0  0  0  0  0
    0.7421   -0.5109    1.2415 C   0  0  0  0  0  0  0  0  0  0  0  0
    0.7625   -2.0177    1.2333 C   0  0  0  0  0  0  0  0  0  0  0  0
   -0.2174   -2.8570    1.8071 C   0  0  0  0  0  0  0  0  0  0  0  0
    0.1923   -4.1830    1.5712 C   0  0  0  0  0  0  0  0  0  0  0  0
   -0.6135   -5.2265    2.0444 C   0  0  0  0  0  0  0  0  0  0  0  0
   -0.2601   -6.5186    1.8419 O   0  5  0  0  0  0  0  0  0  0  0  0
   -1.7279   -4.9249    2.6943 N   0  0  0  0  0  0  0  0  0  0  0  0
   -2.0849   -3.6596    2.8995 C   0  0  0  0  0  0  0  0  0  0  0  0
   -1.3578   -2.6425    2.4719 N   0  0  0  0  0  0  0  0  0  0  0  0
   -3.3423   -3.3814    3.6330 C   0  0  0  0  0  0  0  0  0  0  0  0
   -3.7452   -2.0663    3.8582 C   0  0  0  0  0  0  0  0  0  0  0  0
   -4.9165   -1.8127    4.5415 C   0  0  0  0  0  0  0  0  0  0  0  0
   -5.6942   -2.8598    5.0050 C   0  0  0  0  0  0  0  0  0  0  0  0
   -5.3047   -4.1672    4.7876 C   0  0  0  0  0  0  0  0  0  0  0  0
   -4.1331   -4.4372    4.0974 C   0  0  0  0  0  0  0  0  0  0  0  0
   -3.7520   -5.7219    3.8780 O   0  0  0  0  0  0  0  0  0  0  0  0
   -4.6097   -6.7481    4.3815 C   0  0  0  0  0  0  0  0  0  0  0  0
   -4.0202   -8.1182    4.0407 C   0  0  0  0  0  0  0  0  0  0  0  0
   -5.4242   -0.1495    4.8259 S   0  0  0  0  0  0  0  0  0  0  0  0
   -6.2763   -0.1738    5.9628 O   0  0  0  0  0  0  0  0  0  0  0  0
   -4.2498    0.6486    4.7710 O   0  0  0  0  0  0  0  0  0  0  0  0
   -6.3641    0.3023    3.5395 N   0  0  0  0  0  0  0  0  0  0  0  0
   -5.7585    0.9185    2.3506 C   0  0  0  0  0  0  0  0  0  0  0  0
   -6.1590    0.1002    1.1168 C   0  0  0  0  0  0  0  0  0  0  0  0
   -7.6135   -0.1083    1.1434 N   0  0  0  0  0  0  0  0  0  0  0  0
   -8.2190   -0.7245    2.3323 C   0  0  0  0  0  0  0  0  0  0  0  0
   -7.8179    0.0886    3.5638 C   0  0  0  0  0  0  0  0  0  0  0  0
   -8.4042    0.2718    0.0611 C   0  0  0  0  0  0  0  0  0  0  0  0
   -8.6582   -0.6178   -0.9613 C   0  0  0  0  0  0  0  0  0  0  0  0
   -9.4470   -0.2482   -2.0463 C   0  0  0  0  0  0  0  0  0  0  0  0
   -9.9887    0.9984   -2.1295 C   0  0  0  0  0  0  0  0  0  0  0  0
   -9.7542    1.9351   -1.1086 C   0  0  0  0  0  0  0  0  0  0  0  0
   -8.9575    1.5690    0.0042 C   0  0  0  0  0  0  0  0  0  0  0  0
   -8.7284    2.5042    1.0255 C   0  0  0  0  0  0  0  0  0  0  0  0
   -9.2777    3.7469    0.9371 C   0  0  0  0  0  0  0  0  0  0  0  0
  -10.0666    4.1060   -0.1540 C   0  0  0  0  0  0  0  0  0  0  0  0
  -10.3001    3.2291   -1.1684 C   0  0  0  0  0  0  0  0  0  0  0  0
    1.3733   -4.1142    0.8819 N   0  0  0  0  0  0  0  0  0  0  0  0
    1.6847   -2.7617    0.6904 N   0  0  0  0  0  0  0  0  0  0  0  0
    2.1690   -5.2546    0.4209 C   0  0  0  0  0  0  0  0  0  0  0  0
    1.0039    1.9031    0.0027 H   0  0  0  0  0  0  0  0  0  0  0  0
   -0.5459    1.8868   -0.8726 H   0  0  0  0  0  0  0  0  0  0  0  0
   -0.5289    1.8773    0.9072 H   0  0  0  0  0  0  0  0  0  0  0  0
   -1.0205   -0.3814    0.0098 H   0  0  0  0  0  0  0  0  0  0  0  0
    0.5123   -0.3556   -0.8948 H   0  0  0  0  0  0  0  0  0  0  0  0
    1.7647   -0.1336    1.2338 H   0  0  0  0  0  0  0  0  0  0  0  0
    0.2319   -0.1594    2.1383 H   0  0  0  0  0  0  0  0  0  0  0  0
   -3.1409   -1.2466    3.4984 H   0  0  0  0  0  0  0  0  0  0  0  0
   -6.6098   -2.6537    5.5394 H   0  0  0  0  0  0  0  0  0  0  0  0
   -5.9157   -4.9798    5.1520 H   0  0  0  0  0  0  0  0  0  0  0  0
   -4.6980   -6.6494    5.4634 H   0  0  0  0  0  0  0  0  0  0  0  0
   -5.5956   -6.6533    3.9263 H   0  0  0  0  0  0  0  0  0  0  0  0
   -3.9320   -8.2168    2.9587 H   0  0  0  0  0  0  0  0  0  0  0  0
   -3.0344   -8.2130    4.4958 H   0  0  0  0  0  0  0  0  0  0  0  0
   -4.6745   -8.9009    4.4247 H   0  0  0  0  0  0  0  0  0  0  0  0
   -6.1201    1.9413    2.2444 H   0  0  0  0  0  0  0  0  0  0  0  0
   -4.6733    0.9201    2.4520 H   0  0  0  0  0  0  0  0  0  0  0  0
   -5.8837    0.6432    0.2126 H   0  0  0  0  0  0  0  0  0  0  0  0
   -5.6508   -0.8639    1.1364 H   0  0  0  0  0  0  0  0  0  0  0  0
   -9.3043   -0.7262    2.2309 H   0  0  0  0  0  0  0  0  0  0  0  0
   -7.8575   -1.7473    2.4385 H   0  0  0  0  0  0  0  0  0  0  0  0
   -8.0923   -0.4577    4.4663 H   0  0  0  0  0  0  0  0  0  0  0  0
   -8.3294    1.0510    3.5460 H   0  0  0  0  0  0  0  0  0  0  0  0
   -8.2398   -1.6126   -0.9197 H   0  0  0  0  0  0  0  0  0  0  0  0
   -9.6325   -0.9616   -2.8356 H   0  0  0  0  0  0  0  0  0  0  0  0
  -10.5978    1.2672   -2.9799 H   0  0  0  0  0  0  0  0  0  0  0  0
   -8.1196    2.2392    1.8773 H   0  0  0  0  0  0  0  0  0  0  0  0
   -9.0998    4.4645    1.7244 H   0  0  0  0  0  0  0  0  0  0  0  0
  -10.4914    5.0979   -0.1998 H   0  0  0  0  0  0  0  0  0  0  0  0
  -10.9125    3.5216   -2.0085 H   0  0  0  0  0  0  0  0  0  0  0  0
    1.8484   -5.5400   -0.5811 H   0  0  0  0  0  0  0  0  0  0  0  0
    3.2230   -4.9776    0.4001 H   0  0  0  0  0  0  0  0  0  0  0  0
    2.0275   -6.0949    1.1007 H   0  0  0  0  0  0  0  0  0  0  0  0
  1  2  1  0  0  0  0
  1 43  1  0  0  0  0
  1 44  1  0  0  0  0
  1 45  1  0  0  0  0
  2  3  1  0  0  0  0
  2 46  1  0  0  0  0
  2 47  1  0  0  0  0
  3  4  1  0  0  0  0
  3 48  1  0  0  0  0
  3 49  1  0  0  0  0
  4 41  2  0  0  0  0
  4  5  1  0  0  0  0
  5 11  2  0  0  0  0
  5  6  1  0  0  0  0
  6  7  2  0  0  0  0
  6 40  1  0  0  0  0
  7  8  1  0  0  0  0
  7  9  1  0  0  0  0
  9 10  2  0  0  0  0
 10 11  1  0  0  0  0
 10 12  1  0  0  0  0
 12 17  2  0  0  0  0
 12 13  1  0  0  0  0
 13 14  2  0  0  0  0
 13 50  1  0  0  0  0
 14 15  1  0  0  0  0
 14 21  1  0  0  0  0
 15 16  2  0  0  0  0
 15 51  1  0  0  0  0
 16 17  1  0  0  0  0
 16 52  1  0  0  0  0
 17 18  1  0  0  0  0
 18 19  1  0  0  0  0
 19 20  1  0  0  0  0
 19 53  1  0  0  0  0
 19 54  1  0  0  0  0
 20 55  1  0  0  0  0
 20 56  1  0  0  0  0
 20 57  1  0  0  0  0
 21 22  2  0  0  0  0
 21 23  2  0  0  0  0
 21 24  1  0  0  0  0
 24 29  1  0  0  0  0
 24 25  1  0  0  0  0
 25 26  1  0  0  0  0
 25 58  1  0  0  0  0
 25 59  1  0  0  0  0
 26 27  1  0  0  0  0
 26 60  1  0  0  0  0
 26 61  1  0  0  0  0
 27 28  1  0  0  0  0
 27 30  1  0  0  0  0
 28 29  1  0  0  0  0
 28 62  1  0  0  0  0
 28 63  1  0  0  0  0
 29 64  1  0  0  0  0
 29 65  1  0  0  0  0
 30 35  2  0  0  0  0
 30 31  1  0  0  0  0
 31 32  2  0  0  0  0
 31 66  1  0  0  0  0
 32 33  1  0  0  0  0
 32 67  1  0  0  0  0
 33 34  2  0  0  0  0
 33 68  1  0  0  0  0
 34 39  1  0  0  0  0
 34 35  1  0  0  0  0
 35 36  1  0  0  0  0
 36 37  2  0  0  0  0
 36 69  1  0  0  0  0
 37 38  1  0  0  0  0
 37 70  1  0  0  0  0
 38 39  2  0  0  0  0
 38 71  1  0  0  0  0
 39 72  1  0  0  0  0
 40 41  1  0  0  0  0
 40 42  1  0  0  0  0
 42 73  1  0  0  0  0
 42 74  1  0  0  0  0
 42 75  1  0  0  0  0
M  CHG  1   8  -1
M  END
$$$$
CHEMBL498866
  -OEChem-07121202283D

 72 76  0     0  0  0  0  0  0999 V2000
   -0.0259    1.6219   -0.0644 C   0  0  0  0  0  0  0  0  0  0  0  0
   -0.0094    0.0921   -0.0521 C   0  0  0  0  0  0  0  0  0  0  0  0
   -1.4463   -0.4334   -0.0387 C   0  0  0  0  0  0  0  0  0  0  0  0
   -1.4300   -1.9402   -0.0265 C   0  0  0  0  0  0  0  0  0  0  0  0
   -1.4228   -2.7700   -1.1646 C   0  0  0  0  0  0  0  0  0  0  0  0
   -1.4070   -4.0933   -0.7052 C   0  0  0  0  0  0  0  0  0  0  0  0
   -1.3977   -5.1435   -1.6522 C   0  0  0  0  0  0  0  0  0  0  0  0
   -1.3843   -6.3080   -1.2927 O   0  0  0  0  0  0  0  0  0  0  0  0
   -1.4044   -4.8245   -2.9655 N   0  0  0  0  0  0  0  0  0  0  0  0
   -1.3982   -5.5281   -3.6332 H   0  0  0  0  0  0  0  0  0  0  0  0
   -1.4204   -3.5135   -3.3578 C   0  0  0  0  0  0  0  0  0  0  0  0
   -1.4281   -2.5296   -2.4913 N   0  0  0  0  0  0  0  0  0  0  0  0
   -1.4273   -3.1976   -4.8000 C   0  0  0  0  0  0  0  0  0  0  0  0
   -1.4235   -4.2264   -5.7440 C   0  0  0  0  0  0  0  0  0  0  0  0
   -1.4300   -3.9250   -7.0892 C   0  0  0  0  0  0  0  0  0  0  0  0
   -1.4399   -2.6053   -7.5092 C   0  0  0  0  0  0  0  0  0  0  0  0
   -1.4438   -1.5785   -6.5855 C   0  0  0  0  0  0  0  0  0  0  0  0
   -1.4436   -1.8641   -5.2289 C   0  0  0  0  0  0  0  0  0  0  0  0
   -1.4532   -0.8560   -4.3201 O   0  0  0  0  0  0  0  0  0  0  0  0
   -1.4697    0.4783   -4.8315 C   0  0  0  0  0  0  0  0  0  0  0  0
   -1.4785    1.4707   -3.6670 C   0  0  0  0  0  0  0  0  0  0  0  0
   -1.4252   -5.2243   -8.2793 S   0  0  0  0  0  0  0  0  0  0  0  0
   -0.8820   -4.6790   -9.4738 O   0  0  0  0  0  0  0  0  0  0  0  0
   -0.8645   -6.3612   -7.6371 O   0  0  0  0  0  0  0  0  0  0  0  0
   -3.0057   -5.5961   -8.6048 N   0  0  0  0  0  0  0  0  0  0  0  0
   -3.7126   -6.6141   -7.8149 C   0  0  0  0  0  0  0  0  0  0  0  0
   -4.9875   -5.9877   -7.2365 C   0  0  0  0  0  0  0  0  0  0  0  0
   -5.7086   -5.3051   -8.3201 N   0  0  0  0  0  0  0  0  0  0  0  0
   -5.0017   -4.2871   -9.1099 C   0  0  0  0  0  0  0  0  0  0  0  0
   -3.7285   -4.9096   -9.6846 C   0  0  0  0  0  0  0  0  0  0  0  0
   -7.0417   -5.6187   -8.5945 C   0  0  0  0  0  0  0  0  0  0  0  0
   -7.6647   -6.6611   -7.9201 C   0  0  0  0  0  0  0  0  0  0  0  0
   -8.9831   -6.9682   -8.1936 C   0  0  0  0  0  0  0  0  0  0  0  0
   -9.6830   -6.2393   -9.1376 C   0  0  0  0  0  0  0  0  0  0  0  0
   -9.0658   -5.2009   -9.8109 C   0  0  0  0  0  0  0  0  0  0  0  0
   -7.7492   -4.8852   -9.5385 C   0  0  0  0  0  0  0  0  0  0  0  0
  -11.0956   -6.5715   -9.4284 N   0  3  0  0  0  0  0  0  0  0  0  0
  -11.6364   -7.4793   -8.8409 O   0  0  0  0  0  0  0  0  0  0  0  0
  -11.7088   -5.9352  -10.2535 O   0  5  0  0  0  0  0  0  0  0  0  0
   -1.4050   -4.0409    0.6610 N   0  0  0  0  0  0  0  0  0  0  0  0
   -1.4146   -2.6922    1.0406 N   0  0  0  0  0  0  0  0  0  0  0  0
   -1.3911   -5.1914    1.5678 C   0  0  0  0  0  0  0  0  0  0  0  0
    0.9978    1.9963   -0.0740 H   0  0  0  0  0  0  0  0  0  0  0  0
   -0.5493    1.9725   -0.9539 H   0  0  0  0  0  0  0  0  0  0  0  0
   -0.5379    1.9869    0.8259 H   0  0  0  0  0  0  0  0  0  0  0  0
    0.5026   -0.2729   -0.9424 H   0  0  0  0  0  0  0  0  0  0  0  0
    0.5140   -0.2585    0.8374 H   0  0  0  0  0  0  0  0  0  0  0  0
   -1.9583   -0.0683    0.8517 H   0  0  0  0  0  0  0  0  0  0  0  0
   -1.9697   -0.0828   -0.9282 H   0  0  0  0  0  0  0  0  0  0  0  0
   -1.4151   -5.2568   -5.4208 H   0  0  0  0  0  0  0  0  0  0  0  0
   -1.4442   -2.3779   -8.5650 H   0  0  0  0  0  0  0  0  0  0  0  0
   -1.4511   -0.5518   -6.9205 H   0  0  0  0  0  0  0  0  0  0  0  0
   -0.5829    0.6439   -5.4433 H   0  0  0  0  0  0  0  0  0  0  0  0
   -2.3627    0.6234   -5.4393 H   0  0  0  0  0  0  0  0  0  0  0  0
   -1.4910    2.4884   -4.0571 H   0  0  0  0  0  0  0  0  0  0  0  0
   -2.3652    1.3051   -3.0552 H   0  0  0  0  0  0  0  0  0  0  0  0
   -0.5854    1.3256   -3.0592 H   0  0  0  0  0  0  0  0  0  0  0  0
   -3.9766   -7.4558   -8.4552 H   0  0  0  0  0  0  0  0  0  0  0  0
   -3.0720   -6.9564   -7.0021 H   0  0  0  0  0  0  0  0  0  0  0  0
   -5.6186   -6.7684   -6.8121 H   0  0  0  0  0  0  0  0  0  0  0  0
   -4.7225   -5.2671   -6.4628 H   0  0  0  0  0  0  0  0  0  0  0  0
   -5.6423   -3.9448   -9.9227 H   0  0  0  0  0  0  0  0  0  0  0  0
   -4.7377   -3.4455   -8.4696 H   0  0  0  0  0  0  0  0  0  0  0  0
   -3.0985   -4.1265  -10.1064 H   0  0  0  0  0  0  0  0  0  0  0  0
   -3.9937   -5.6271  -10.4612 H   0  0  0  0  0  0  0  0  0  0  0  0
   -7.1186   -7.2310   -7.1829 H   0  0  0  0  0  0  0  0  0  0  0  0
   -9.4680   -7.7787   -7.6698 H   0  0  0  0  0  0  0  0  0  0  0  0
   -9.6151   -4.6339  -10.5478 H   0  0  0  0  0  0  0  0  0  0  0  0
   -7.2690   -4.0715  -10.0616 H   0  0  0  0  0  0  0  0  0  0  0  0
   -0.3600   -5.4658    1.7907 H   0  0  0  0  0  0  0  0  0  0  0  0
   -1.9060   -4.9315    2.4926 H   0  0  0  0  0  0  0  0  0  0  0  0
   -1.8968   -6.0331    1.0946 H   0  0  0  0  0  0  0  0  0  0  0  0
  1  2  1  0  0  0  0
  1 43  1  0  0  0  0
  1 44  1  0  0  0  0
  1 45  1  0  0  0  0
  2  3  1  0  0  0  0
  2 46  1  0  0  0  0
  2 47  1  0  0  0  0
  3  4  1  0  0  0  0
  3 48  1  0  0  0  0
  3 49  1  0  0  0  0
  4 41  2  0  0  0  0
  4  5  1  0  0  0  0
  5 12  1  0  0  0  0
  5  6  2  0  0  0  0
  6  7  1  0  0  0  0
  6 40  1  0  0  0  0
  7  8  2  0  0  0  0
  7  9  1  0  0  0  0
  9 10  1  0  0  0  0
  9 11  1  0  0  0  0
 11 12  2  0  0  0  0
 11 13  1  0  0  0  0
 13 18  2  0  0  0  0
 13 14  1  0  0  0  0
 14 15  2  0  0  0  0
 14 50  1  0  0  0  0
 15 16  1  0  0  0  0
 15 22  1  0  0  0  0
 16 17  2  0  0  0  0
 16 51  1  0  0  0  0
 17 18  1  0  0  0  0
 17 52  1  0  0  0  0
 18 19  1  0  0  0  0
 19 20  1  0  0  0  0
 20 21  1  0  0  0  0
 20 53  1  0  0  0  0
 20 54  1  0  0  0  0
 21 55  1  0  0  0  0
 21 56  1  0  0  0  0
 21 57  1  0  0  0  0
 22 23  2  0  0  0  0
 22 24  2  0  0  0  0
 22 25  1  0  0  0  0
 25 30  1  0  0  0  0
 25 26  1  0  0  0  0
 26 27  1  0  0  0  0
 26 58  1  0  0  0  0
 26 59  1  0  0  0  0
 27 28  1  0  0  0  0
 27 60  1  0  0  0  0
 27 61  1  0  0  0  0
 28 29  1  0  0  0  0
 28 31  1  0  0  0  0
 29 30  1  0  0  0  0
 29 62  1  0  0  0  0
 29 63  1  0  0  0  0
 30 64  1  0  0  0  0
 30 65  1  0  0  0  0
 31 36  2  0  0  0  0
 31 32  1  0  0  0  0
 32 33  2  0  0  0  0
 32 66  1  0  0  0  0
 33 34  1  0  0  0  0
 33 67  1  0  0  0  0
 34 35  2  0  0  0  0
 34 37  1  0  0  0  0
 35 36  1  0  0  0  0
 35 68  1  0  0  0  0
 36 69  1  0  0  0  0
 37 38  2  0  0  0  0
 37 39  1  0  0  0  0
 40 41  1  0  0  0  0
 40 42  1  0  0  0  0
 42 70  1  0  0  0  0
 42 71  1  0  0  0  0
 42 72  1  0  0  0  0
M  CHG  2  37   1  39  -1
M  END
$$$$
CHEMBL498866
  -OEChem-07121202283D

 72 76  0     0  0  0  0  0  0999 V2000
   -0.0593    1.4314    0.0207 C   0  0  0  0  0  0  0  0  0  0  0  0
   -0.0195   -0.0981    0.0207 C   0  0  0  0  0  0  0  0  0  0  0  0
    0.6980   -0.5897   -1.2380 C   0  0  0  0  0  0  0  0  0  0  0  0
    0.7371   -2.0962   -1.2379 C   0  0  0  0  0  0  0  0  0  0  0  0
    1.7476   -2.8852   -0.6776 C   0  0  0  0  0  0  0  0  0  0  0  0
    1.4001   -4.2169   -0.8938 C   0  0  0  0  0  0  0  0  0  0  0  0
    2.3018   -5.2589   -0.3992 C   0  0  0  0  0  0  0  0  0  0  0  0
    2.0395   -6.4395   -0.5655 O   0  0  0  0  0  0  0  0  0  0  0  0
    3.4233   -4.8903    0.2404 N   0  0  0  0  0  0  0  0  0  0  0  0
    3.7217   -3.6223    0.4279 C   0  0  0  0  0  0  0  0  0  0  0  0
    2.9251   -2.6101   -0.0076 N   0  0  0  0  0  0  0  0  0  0  0  0
    4.9698   -3.2859    1.1388 C   0  0  0  0  0  0  0  0  0  0  0  0
    5.3141   -1.9501    1.3600 C   0  0  0  0  0  0  0  0  0  0  0  0
    6.4812   -1.6425    2.0251 C   0  0  0  0  0  0  0  0  0  0  0  0
    7.3158   -2.6523    2.4755 C   0  0  0  0  0  0  0  0  0  0  0  0
    6.9876   -3.9767    2.2632 C   0  0  0  0  0  0  0  0  0  0  0  0
    5.8140   -4.3045    1.6012 C   0  0  0  0  0  0  0  0  0  0  0  0
    5.4873   -5.6055    1.3971 O   0  0  0  0  0  0  0  0  0  0  0  0
    6.3962   -6.5887    1.8966 C   0  0  0  0  0  0  0  0  0  0  0  0
    5.8633   -7.9862    1.5745 C   0  0  0  0  0  0  0  0  0  0  0  0
    6.9141    0.0427    2.3033 S   0  0  0  0  0  0  0  0  0  0  0  0
    8.3251    0.0776    2.4680 O   0  0  0  0  0  0  0  0  0  0  0  0
    6.2442    0.8038    1.3077 O   0  0  0  0  0  0  0  0  0  0  0  0
    6.2567    0.4833    3.7580 N   0  0  0  0  0  0  0  0  0  0  0  0
    4.9006    1.0455    3.8263 C   0  0  0  0  0  0  0  0  0  0  0  0
    4.0693    0.2028    4.8017 C   0  0  0  0  0  0  0  0  0  0  0  0
    4.8315    0.0382    6.0475 N   0  0  0  0  0  0  0  0  0  0  0  0
    6.1876   -0.5239    5.9791 C   0  0  0  0  0  0  0  0  0  0  0  0
    7.0167    0.3135    5.0044 C   0  0  0  0  0  0  0  0  0  0  0  0
    4.2770    0.4099    7.2744 C   0  0  0  0  0  0  0  0  0  0  0  0
    3.0427    1.0457    7.3164 C   0  0  0  0  0  0  0  0  0  0  0  0
    2.4971    1.4113    8.5313 C   0  0  0  0  0  0  0  0  0  0  0  0
    3.1782    1.1453    9.7050 C   0  0  0  0  0  0  0  0  0  0  0  0
    4.4072    0.5125    9.6668 C   0  0  0  0  0  0  0  0  0  0  0  0
    4.9561    0.1394    8.4556 C   0  0  0  0  0  0  0  0  0  0  0  0
    2.5906    1.5391   11.0051 N   0  3  0  0  0  0  0  0  0  0  0  0
    1.5164    2.0927   11.0401 O   0  0  0  0  0  0  0  0  0  0  0  0
    3.1849    1.3071   12.0321 O   0  5  0  0  0  0  0  0  0  0  0  0
    0.2125   -4.2170   -1.5660 N   0  0  0  0  0  0  0  0  0  0  0  0
   -0.1707   -2.8820   -1.7567 N   0  0  0  0  0  0  0  0  0  0  0  0
   -0.5312   -5.4003   -2.0051 C   0  0  0  0  0  0  0  0  0  0  0  0
    0.9585    1.8213    0.0069 H   0  0  0  0  0  0  0  0  0  0  0  0
   -0.5942    1.7809   -0.8624 H   0  0  0  0  0  0  0  0  0  0  0  0
   -0.5704    1.7816    0.9174 H   0  0  0  0  0  0  0  0  0  0  0  0
    0.5154   -0.4476    0.9038 H   0  0  0  0  0  0  0  0  0  0  0  0
   -1.0373   -0.4880    0.0345 H   0  0  0  0  0  0  0  0  0  0  0  0
    0.1631   -0.2402   -2.1211 H   0  0  0  0  0  0  0  0  0  0  0  0
    1.7158   -0.1998   -1.2517 H   0  0  0  0  0  0  0  0  0  0  0  0
    4.6667   -1.1597    1.0099 H   0  0  0  0  0  0  0  0  0  0  0  0
    8.2287   -2.4022    2.9956 H   0  0  0  0  0  0  0  0  0  0  0  0
    7.6438   -4.7583    2.6167 H   0  0  0  0  0  0  0  0  0  0  0  0
    7.3707   -6.4543    1.4272 H   0  0  0  0  0  0  0  0  0  0  0  0
    6.4945   -6.4773    2.9764 H   0  0  0  0  0  0  0  0  0  0  0  0
    6.5565   -8.7362    1.9554 H   0  0  0  0  0  0  0  0  0  0  0  0
    4.8887   -8.1206    2.0438 H   0  0  0  0  0  0  0  0  0  0  0  0
    5.7650   -8.0976    0.4946 H   0  0  0  0  0  0  0  0  0  0  0  0
    4.9487    2.0749    4.1815 H   0  0  0  0  0  0  0  0  0  0  0  0
    4.4429    1.0181    2.8374 H   0  0  0  0  0  0  0  0  0  0  0  0
    3.1280    0.7101    5.0130 H   0  0  0  0  0  0  0  0  0  0  0  0
    3.8704   -0.7748    4.3627 H   0  0  0  0  0  0  0  0  0  0  0  0
    6.6453   -0.4965    6.9680 H   0  0  0  0  0  0  0  0  0  0  0  0
    6.1395   -1.5533    5.6239 H   0  0  0  0  0  0  0  0  0  0  0  0
    7.9563   -0.1971    4.7932 H   0  0  0  0  0  0  0  0  0  0  0  0
    7.2190    1.2896    5.4453 H   0  0  0  0  0  0  0  0  0  0  0  0
    2.5104    1.2541    6.4001 H   0  0  0  0  0  0  0  0  0  0  0  0
    1.5376    1.9060    8.5647 H   0  0  0  0  0  0  0  0  0  0  0  0
    4.9366    0.3065   10.5853 H   0  0  0  0  0  0  0  0  0  0  0  0
    5.9140   -0.3584    8.4267 H   0  0  0  0  0  0  0  0  0  0  0  0
   -1.2218   -5.7075   -1.2197 H   0  0  0  0  0  0  0  0  0  0  0  0
   -1.0917   -5.1623   -2.9092 H   0  0  0  0  0  0  0  0  0  0  0  0
    0.1665   -6.2115   -2.2132 H   0  0  0  0  0  0  0  0  0  0  0  0
    3.1846   -1.6893    0.1528 H   0  0  0  0  0  0  0  0  0  0  0  0
  1  2  1  0  0  0  0
  1 42  1  0  0  0  0
  1 43  1  0  0  0  0
  1 44  1  0  0  0  0
  2  3  1  0  0  0  0
  2 45  1  0  0  0  0
  2 46  1  0  0  0  0
  3  4  1  0  0  0  0
  3 47  1  0  0  0  0
  3 48  1  0  0  0  0
  4 40  2  0  0  0  0
  4  5  1  0  0  0  0
  5 11  1  0  0  0  0
  5  6  2  0  0  0  0
  6  7  1  0  0  0  0
  6 39  1  0  0  0  0
  7  8  2  0  0  0  0
  7  9  1  0  0  0  0
  9 10  2  0  0  0  0
 10 11  1  0  0  0  0
 10 12  1  0  0  0  0
 11 72  1  0  0  0  0
 12 17  2  0  0  0  0
 12 13  1  0  0  0  0
 13 14  2  0  0  0  0
 13 49  1  0  0  0  0
 14 15  1  0  0  0  0
 14 21  1  0  0  0  0
 15 16  2  0  0  0  0
 15 50  1  0  0  0  0
 16 17  1  0  0  0  0
 16 51  1  0  0  0  0
 17 18  1  0  0  0  0
 18 19  1  0  0  0  0
 19 20  1  0  0  0  0
 19 52  1  0  0  0  0
 19 53  1  0  0  0  0
 20 54  1  0  0  0  0
 20 55  1  0  0  0  0
 20 56  1  0  0  0  0
 21 22  2  0  0  0  0
 21 23  2  0  0  0  0
 21 24  1  0  0  0  0
 24 29  1  0  0  0  0
 24 25  1  0  0  0  0
 25 26  1  0  0  0  0
 25 57  1  0  0  0  0
 25 58  1  0  0  0  0
 26 27  1  0  0  0  0
 26 59  1  0  0  0  0
 26 60  1  0  0  0  0
 27 28  1  0  0  0  0
 27 30  1  0  0  0  0
 28 29  1  0  0  0  0
 28 61  1  0  0  0  0
 28 62  1  0  0  0  0
 29 63  1  0  0  0  0
 29 64  1  0  0  0  0
 30 35  2  0  0  0  0
 30 31  1  0  0  0  0
 31 32  2  0  0  0  0
 31 65  1  0  0  0  0
 32 33  1  0  0  0  0
 32 66  1  0  0  0  0
 33 34  2  0  0  0  0
 33 36  1  0  0  0  0
 34 35  1  0  0  0  0
 34 67  1  0  0  0  0
 35 68  1  0  0  0  0
 36 37  2  0  0  0  0
 36 38  1  0  0  0  0
 39 40  1  0  0  0  0
 39 41  1  0  0  0  0
 41 69  1  0  0  0  0
 41 70  1  0  0  0  0
 41 71  1  0  0  0  0
M  CHG  2  36   1  38  -1
M  END
$$$$
CHEMBL498866
  -OEChem-07121202283D

 71 75  0     0  0  0  0  0  0999 V2000
   -0.0057    1.4330   -0.0317 C   0  0  0  0  0  0  0  0  0  0  0  0
   -0.0018   -0.0970   -0.0278 C   0  0  0  0  0  0  0  0  0  0  0  0
    0.7375   -0.6020    1.2129 C   0  0  0  0  0  0  0  0  0  0  0  0
    0.7413   -2.1090    1.2167 C   0  0  0  0  0  0  0  0  0  0  0  0
   -0.2455   -2.9328    1.8009 C   0  0  0  0  0  0  0  0  0  0  0  0
    0.1487   -4.2651    1.5742 C   0  0  0  0  0  0  0  0  0  0  0  0
   -0.6666   -5.2959    2.0589 C   0  0  0  0  0  0  0  0  0  0  0  0
   -0.3282   -6.5934    1.8654 O   0  5  0  0  0  0  0  0  0  0  0  0
   -1.7751   -4.9768    2.7105 N   0  0  0  0  0  0  0  0  0  0  0  0
   -2.1174   -3.7061    2.9069 C   0  0  0  0  0  0  0  0  0  0  0  0
   -1.3808   -2.7005    2.4684 N   0  0  0  0  0  0  0  0  0  0  0  0
   -3.3688   -3.4082    3.6429 C   0  0  0  0  0  0  0  0  0  0  0  0
   -3.7564   -2.0869    3.8591 C   0  0  0  0  0  0  0  0  0  0  0  0
   -4.9221   -1.8150    4.5448 C   0  0  0  0  0  0  0  0  0  0  0  0
   -5.7095   -2.8498    5.0196 C   0  0  0  0  0  0  0  0  0  0  0  0
   -5.3352   -4.1631    4.8113 C   0  0  0  0  0  0  0  0  0  0  0  0
   -4.1693   -4.4515    4.1189 C   0  0  0  0  0  0  0  0  0  0  0  0
   -3.8032   -5.7420    3.9084 O   0  0  0  0  0  0  0  0  0  0  0  0
   -4.6701   -6.7546    4.4233 C   0  0  0  0  0  0  0  0  0  0  0  0
   -4.0971   -8.1338    4.0913 C   0  0  0  0  0  0  0  0  0  0  0  0
   -5.4104   -0.1441    4.8177 S   0  0  0  0  0  0  0  0  0  0  0  0
   -6.2583   -0.1499    5.9580 O   0  0  0  0  0  0  0  0  0  0  0  0
   -4.2275    0.6406    4.7519 O   0  0  0  0  0  0  0  0  0  0  0  0
   -6.3503    0.3077    3.5313 N   0  0  0  0  0  0  0  0  0  0  0  0
   -5.7427    0.9076    2.3352 C   0  0  0  0  0  0  0  0  0  0  0  0
   -6.1569    0.0840    1.1095 C   0  0  0  0  0  0  0  0  0  0  0  0
   -7.6135   -0.1083    1.1434 N   0  0  0  0  0  0  0  0  0  0  0  0
   -8.2211   -0.7083    2.3395 C   0  0  0  0  0  0  0  0  0  0  0  0
   -7.8063    0.1102    3.5629 C   0  0  0  0  0  0  0  0  0  0  0  0
   -8.4062    0.2727    0.0584 C   0  0  0  0  0  0  0  0  0  0  0  0
   -7.8380    0.9430   -1.0175 C   0  0  0  0  0  0  0  0  0  0  0  0
   -8.6246    1.3179   -2.0889 C   0  0  0  0  0  0  0  0  0  0  0  0
   -9.9765    1.0268   -2.0915 C   0  0  0  0  0  0  0  0  0  0  0  0
  -10.5454    0.3597   -1.0221 C   0  0  0  0  0  0  0  0  0  0  0  0
   -9.7635   -0.0227    0.0502 C   0  0  0  0  0  0  0  0  0  0  0  0
  -10.8165    1.4306   -3.2412 N   0  3  0  0  0  0  0  0  0  0  0  0
  -10.3207    2.0142   -4.1767 O   0  0  0  0  0  0  0  0  0  0  0  0
  -11.9986    1.1768   -3.2449 O   0  5  0  0  0  0  0  0  0  0  0  0
    1.3277   -4.2148    0.8799 N   0  0  0  0  0  0  0  0  0  0  0  0
    1.6532   -2.8674    0.6763 N   0  0  0  0  0  0  0  0  0  0  0  0
    2.1090   -5.3676    0.4250 C   0  0  0  0  0  0  0  0  0  0  0  0
    1.0210    1.7989   -0.0463 H   0  0  0  0  0  0  0  0  0  0  0  0
   -0.5323    1.7927   -0.9156 H   0  0  0  0  0  0  0  0  0  0  0  0
   -0.5085    1.7973    0.8642 H   0  0  0  0  0  0  0  0  0  0  0  0
   -1.0284   -0.4630   -0.0132 H   0  0  0  0  0  0  0  0  0  0  0  0
    0.5010   -0.4613   -0.9237 H   0  0  0  0  0  0  0  0  0  0  0  0
    1.7641   -0.2361    1.1982 H   0  0  0  0  0  0  0  0  0  0  0  0
    0.2347   -0.2377    2.1088 H   0  0  0  0  0  0  0  0  0  0  0  0
   -3.1445   -1.2768    3.4904 H   0  0  0  0  0  0  0  0  0  0  0  0
   -6.6206   -2.6293    5.5559 H   0  0  0  0  0  0  0  0  0  0  0  0
   -5.9536   -4.9660    5.1846 H   0  0  0  0  0  0  0  0  0  0  0  0
   -4.7531   -6.6463    5.5048 H   0  0  0  0  0  0  0  0  0  0  0  0
   -5.6567   -6.6526    3.9712 H   0  0  0  0  0  0  0  0  0  0  0  0
   -4.0141   -8.2421    3.0099 H   0  0  0  0  0  0  0  0  0  0  0  0
   -3.1105   -8.2358    4.5435 H   0  0  0  0  0  0  0  0  0  0  0  0
   -4.7584   -8.9062    4.4841 H   0  0  0  0  0  0  0  0  0  0  0  0
   -6.0934    1.9335    2.2222 H   0  0  0  0  0  0  0  0  0  0  0  0
   -4.6571    0.8982    2.4325 H   0  0  0  0  0  0  0  0  0  0  0  0
   -5.8792    0.6167    0.2000 H   0  0  0  0  0  0  0  0  0  0  0  0
   -5.6592   -0.8854    1.1350 H   0  0  0  0  0  0  0  0  0  0  0  0
   -9.3067   -0.6988    2.2423 H   0  0  0  0  0  0  0  0  0  0  0  0
   -7.8704   -1.7341    2.4526 H   0  0  0  0  0  0  0  0  0  0  0  0
   -8.0832   -0.4258    4.4708 H   0  0  0  0  0  0  0  0  0  0  0  0
   -8.3073    1.0780    3.5393 H   0  0  0  0  0  0  0  0  0  0  0  0
   -6.7824    1.1709   -1.0160 H   0  0  0  0  0  0  0  0  0  0  0  0
   -8.1836    1.8393   -2.9256 H   0  0  0  0  0  0  0  0  0  0  0  0
  -11.6016    0.1342   -1.0271 H   0  0  0  0  0  0  0  0  0  0  0  0
  -10.2077   -0.5473    0.8832 H   0  0  0  0  0  0  0  0  0  0  0  0
    1.7815   -5.6574   -0.5734 H   0  0  0  0  0  0  0  0  0  0  0  0
    3.1659   -5.1023    0.3980 H   0  0  0  0  0  0  0  0  0  0  0  0
    1.9610   -6.2007    1.1121 H   0  0  0  0  0  0  0  0  0  0  0  0
  1  2  1  0  0  0  0
  1 42  1  0  0  0  0
  1 43  1  0  0  0  0
  1 44  1  0  0  0  0
  2  3  1  0  0  0  0
  2 45  1  0  0  0  0
  2 46  1  0  0  0  0
  3  4  1  0  0  0  0
  3 47  1  0  0  0  0
  3 48  1  0  0  0  0
  4 40  2  0  0  0  0
  4  5  1  0  0  0  0
  5 11  2  0  0  0  0
  5  6  1  0  0  0  0
  6  7  2  0  0  0  0
  6 39  1  0  0  0  0
  7  8  1  0  0  0  0
  7  9  1  0  0  0  0
  9 10  2  0  0  0  0
 10 11  1  0  0  0  0
 10 12  1  0  0  0  0
 12 17  2  0  0  0  0
 12 13  1  0  0  0  0
 13 14  2  0  0  0  0
 13 49  1  0  0  0  0
 14 15  1  0  0  0  0
 14 21  1  0  0  0  0
 15 16  2  0  0  0  0
 15 50  1  0  0  0  0
 16 17  1  0  0  0  0
 16 51  1  0  0  0  0
 17 18  1  0  0  0  0
 18 19  1  0  0  0  0
 19 20  1  0  0  0  0
 19 52  1  0  0  0  0
 19 53  1  0  0  0  0
 20 54  1  0  0  0  0
 20 55  1  0  0  0  0
 20 56  1  0  0  0  0
 21 22  2  0  0  0  0
 21 23  2  0  0  0  0
 21 24  1  0  0  0  0
 24 29  1  0  0  0  0
 24 25  1  0  0  0  0
 25 26  1  0  0  0  0
 25 57  1  0  0  0  0
 25 58  1  0  0  0  0
 26 27  1  0  0  0  0
 26 59  1  0  0  0  0
 26 60  1  0  0  0  0
 27 28  1  0  0  0  0
 27 30  1  0  0  0  0
 28 29  1  0  0  0  0
 28 61  1  0  0  0  0
 28 62  1  0  0  0  0
 29 63  1  0  0  0  0
 29 64  1  0  0  0  0
 30 35  2  0  0  0  0
 30 31  1  0  0  0  0
 31 32  2  0  0  0  0
 31 65  1  0  0  0  0
 32 33  1  0  0  0  0
 32 66  1  0  0  0  0
 33 34  2  0  0  0  0
 33 36  1  0  0  0  0
 34 35  1  0  0  0  0
 34 67  1  0  0  0  0
 35 68  1  0  0  0  0
 36 37  2  0  0  0  0
 36 38  1  0  0  0  0
 39 40  1  0  0  0  0
 39 41  1  0  0  0  0
 41 69  1  0  0  0  0
 41 70  1  0  0  0  0
 41 71  1  0  0  0  0
M  CHG  3   8  -1  36   1  38  -1
M  END
$$$$
CHEMBL246470
  -OEChem-07121202283D

 52 55  0     0  0  0  0  0  0999 V2000
   -0.0187    1.5258    0.0104 C   0  0  0  0  0  0  0  0  0  0  0  0
    0.0021   -0.0041    0.0020 C   0  0  0  0  0  0  0  0  0  0  0  0
    0.7421   -0.5109    1.2415 C   0  0  0  0  0  0  0  0  0  0  0  0
   -1.4333   -0.5336    0.0129 C   0  0  0  0  0  0  0  0  0  0  0  0
   -1.4164   -1.9929   -0.1155 N   0  0  0  0  0  0  0  0  0  0  0  0
   -1.4503   -2.5772   -1.3713 C   0  0  0  0  0  0  0  0  0  0  0  0
   -1.4334   -3.9631   -1.4667 C   0  0  0  0  0  0  0  0  0  0  0  0
   -1.3823   -4.7332   -0.2849 C   0  0  0  0  0  0  0  0  0  0  0  0
   -1.3661   -5.9497   -0.3425 O   0  0  0  0  0  0  0  0  0  0  0  0
   -1.3510   -4.1060    0.9093 N   0  0  0  0  0  0  0  0  0  0  0  0
   -1.3624   -2.7641    0.9868 C   0  0  0  0  0  0  0  0  0  0  0  0
   -1.3278   -2.2332    2.0803 O   0  0  0  0  0  0  0  0  0  0  0  0
   -1.2979   -4.8993    2.1398 C   0  0  0  0  0  0  0  0  0  0  0  0
   -1.4747   -4.2580   -2.8148 N   0  0  0  0  0  0  0  0  0  0  0  0
   -1.4757   -5.1428   -3.2121 H   0  0  0  0  0  0  0  0  0  0  0  0
   -1.5140   -3.0834   -3.4737 C   0  0  0  0  0  0  0  0  0  0  0  0
   -1.4994   -2.0953   -2.6158 N   0  0  0  0  0  0  0  0  0  0  0  0
   -1.5661   -2.9307   -4.9720 C   0  0  0  0  0  0  0  0  0  0  0  0
   -2.7559   -2.0864   -5.3499 C   0  0  0  0  0  0  0  0  0  0  0  0
   -3.9390   -2.6671   -5.6922 C   0  0  0  0  0  0  0  0  0  0  0  0
   -5.0006   -1.9473   -6.0286 N   0  0  0  0  0  0  0  0  0  0  0  0
   -4.9899   -0.6346   -6.0562 C   0  0  0  0  0  0  0  0  0  0  0  0
   -3.8194    0.0626   -5.7204 C   0  0  0  0  0  0  0  0  0  0  0  0
   -2.6682   -0.6820   -5.3503 C   0  0  0  0  0  0  0  0  0  0  0  0
   -1.4894   -0.0081   -5.0056 C   0  0  0  0  0  0  0  0  0  0  0  0
   -1.4661    1.3589   -5.0254 C   0  0  0  0  0  0  0  0  0  0  0  0
   -2.6024    2.0915   -5.3848 C   0  0  0  0  0  0  0  0  0  0  0  0
   -3.7583    1.4658   -5.7355 C   0  0  0  0  0  0  0  0  0  0  0  0
   -0.3244    2.0144   -4.6911 O   0  0  0  0  0  0  0  0  0  0  0  0
   -0.3609    3.4424   -4.7303 C   0  0  0  0  0  0  0  0  0  0  0  0
    1.0039    1.9031    0.0027 H   0  0  0  0  0  0  0  0  0  0  0  0
   -0.5459    1.8868   -0.8726 H   0  0  0  0  0  0  0  0  0  0  0  0
   -0.5289    1.8773    0.9072 H   0  0  0  0  0  0  0  0  0  0  0  0
    0.5123   -0.3556   -0.8948 H   0  0  0  0  0  0  0  0  0  0  0  0
    0.7568   -1.6008    1.2356 H   0  0  0  0  0  0  0  0  0  0  0  0
    1.7647   -0.1336    1.2338 H   0  0  0  0  0  0  0  0  0  0  0  0
    0.2319   -0.1594    2.1383 H   0  0  0  0  0  0  0  0  0  0  0  0
   -1.9156   -0.2570    0.9504 H   0  0  0  0  0  0  0  0  0  0  0  0
   -1.9862   -0.1019   -0.8214 H   0  0  0  0  0  0  0  0  0  0  0  0
   -1.2910   -5.9599    1.8883 H   0  0  0  0  0  0  0  0  0  0  0  0
   -0.3922   -4.6512    2.6932 H   0  0  0  0  0  0  0  0  0  0  0  0
   -2.1710   -4.6771    2.7533 H   0  0  0  0  0  0  0  0  0  0  0  0
   -0.6529   -2.4480   -5.3200 H   0  0  0  0  0  0  0  0  0  0  0  0
   -1.6565   -3.9136   -5.4345 H   0  0  0  0  0  0  0  0  0  0  0  0
   -4.0148   -3.7445   -5.6901 H   0  0  0  0  0  0  0  0  0  0  0  0
   -5.8805   -0.0923   -6.3373 H   0  0  0  0  0  0  0  0  0  0  0  0
   -0.6065   -0.5638   -4.7262 H   0  0  0  0  0  0  0  0  0  0  0  0
   -2.5585    3.1706   -5.3927 H   0  0  0  0  0  0  0  0  0  0  0  0
   -4.6275    2.0446   -6.0106 H   0  0  0  0  0  0  0  0  0  0  0  0
    0.6127    3.8388   -4.4420 H   0  0  0  0  0  0  0  0  0  0  0  0
   -0.6028    3.7721   -5.7407 H   0  0  0  0  0  0  0  0  0  0  0  0
   -1.1205    3.8055   -4.0380 H   0  0  0  0  0  0  0  0  0  0  0  0
  1  2  1  0  0  0  0
  1 31  1  0  0  0  0
  1 32  1  0  0  0  0
  1 33  1  0  0  0  0
  2  3  1  0  0  0  0
  2  4  1  0  0  0  0
  2 34  1  0  0  0  0
  3 35  1  0  0  0  0
  3 36  1  0  0  0  0
  3 37  1  0  0  0  0
  4  5  1  0  0  0  0
  4 38  1  0  0  0  0
  4 39  1  0  0  0  0
  5 11  1  0  0  0  0
  5  6  1  0  0  0  0
  6 17  1  0  0  0  0
  6  7  2  0  0  0  0
  7  8  1  0  0  0  0
  7 14  1  0  0  0  0
  8  9  2  0  0  0  0
  8 10  1  0  0  0  0
 10 11  1  0  0  0  0
 10 13  1  0  0  0  0
 11 12  2  0  0  0  0
 13 40  1  0  0  0  0
 13 41  1  0  0  0  0
 13 42  1  0  0  0  0
 14 15  1  0  0  0  0
 14 16  1  0  0  0  0
 16 17  2  0  0  0  0
 16 18  1  0  0  0  0
 18 19  1  0  0  0  0
 18 43  1  0  0  0  0
 18 44  1  0  0  0  0
 19 24  2  0  0  0  0
 19 20  1  0  0  0  0
 20 21  2  0  0  0  0
 20 45  1  0  0  0  0
 21 22  1  0  0  0  0
 22 23  2  0  0  0  0
 22 46  1  0  0  0  0
 23 28  1  0  0  0  0
 23 24  1  0  0  0  0
 24 25  1  0  0  0  0
 25 26  2  0  0  0  0
 25 47  1  0  0  0  0
 26 27  1  0  0  0  0
 26 29  1  0  0  0  0
 27 28  2  0  0  0  0
 27 48  1  0  0  0  0
 28 49  1  0  0  0  0
 29 30  1  0  0  0  0
 30 50  1  0  0  0  0
 30 51  1  0  0  0  0
 30 52  1  0  0  0  0
M  END
$$$$
CHEMBL246470
  -OEChem-07121202283D

 53 56  0     0  0  0  0  0  0999 V2000
   -0.0187    1.5258    0.0104 C   0  0  0  0  0  0  0  0  0  0  0  0
    0.0021   -0.0041    0.0020 C   0  0  0  0  0  0  0  0  0  0  0  0
    0.7182   -0.4975   -1.2568 C   0  0  0  0  0  0  0  0  0  0  0  0
    0.7421   -0.5109    1.2415 C   0  0  0  0  0  0  0  0  0  0  0  0
   -0.0083   -0.1401    2.4439 N   0  0  0  0  0  0  0  0  0  0  0  0
    0.2408    1.0713    3.0685 C   0  0  0  0  0  0  0  0  0  0  0  0
   -0.4839    1.4001    4.2072 C   0  0  0  0  0  0  0  0  0  0  0  0
   -1.4501    0.4930    4.6932 C   0  0  0  0  0  0  0  0  0  0  0  0
   -2.0984    0.7587    5.6895 O   0  0  0  0  0  0  0  0  0  0  0  0
   -1.6472   -0.6717    4.0410 N   0  0  0  0  0  0  0  0  0  0  0  0
   -0.9427   -0.9746    2.9371 C   0  0  0  0  0  0  0  0  0  0  0  0
   -1.1512   -2.0311    2.3723 O   0  0  0  0  0  0  0  0  0  0  0  0
   -2.6484   -1.6176    4.5402 C   0  0  0  0  0  0  0  0  0  0  0  0
   -0.0324    2.6418    4.6073 N   0  0  0  0  0  0  0  0  0  0  0  0
   -0.3413    3.1484    5.3747 H   0  0  0  0  0  0  0  0  0  0  0  0
    0.9193    3.0161    3.7302 C   0  0  0  0  0  0  0  0  0  0  0  0
    1.0757    2.0846    2.8244 N   0  0  0  0  0  0  0  0  0  0  0  0
    1.6871    4.3117    3.7836 C   0  0  0  0  0  0  0  0  0  0  0  0
    3.1654    4.0196    3.7953 C   0  0  0  0  0  0  0  0  0  0  0  0
    3.8487    3.9413    4.9705 C   0  0  0  0  0  0  0  0  0  0  0  0
    5.1493    3.6856    5.0084 N   0  3  0  0  0  0  0  0  0  0  0  0
    5.8674    3.4909    3.9265 C   0  0  0  0  0  0  0  0  0  0  0  0
    5.2595    3.5500    2.6633 C   0  0  0  0  0  0  0  0  0  0  0  0
    3.8664    3.8164    2.5921 C   0  0  0  0  0  0  0  0  0  0  0  0
    3.2359    3.8749    1.3426 C   0  0  0  0  0  0  0  0  0  0  0  0
    3.9712    3.6691    0.2082 C   0  0  0  0  0  0  0  0  0  0  0  0
    5.3424    3.4013    0.2797 C   0  0  0  0  0  0  0  0  0  0  0  0
    5.9851    3.3493    1.4776 C   0  0  0  0  0  0  0  0  0  0  0  0
    3.3618    3.7249   -1.0045 O   0  0  0  0  0  0  0  0  0  0  0  0
    4.1817    3.5015   -2.1534 C   0  0  0  0  0  0  0  0  0  0  0  0
    1.0039    1.9031    0.0027 H   0  0  0  0  0  0  0  0  0  0  0  0
   -0.5459    1.8868   -0.8726 H   0  0  0  0  0  0  0  0  0  0  0  0
   -0.5289    1.8773    0.9072 H   0  0  0  0  0  0  0  0  0  0  0  0
   -1.0205   -0.3814    0.0098 H   0  0  0  0  0  0  0  0  0  0  0  0
    1.7408   -0.1202   -1.2645 H   0  0  0  0  0  0  0  0  0  0  0  0
    0.7330   -1.5874   -1.2628 H   0  0  0  0  0  0  0  0  0  0  0  0
    0.1910   -0.1364   -2.1398 H   0  0  0  0  0  0  0  0  0  0  0  0
    0.8346   -1.5958    1.1912 H   0  0  0  0  0  0  0  0  0  0  0  0
    1.7350   -0.0630    1.2804 H   0  0  0  0  0  0  0  0  0  0  0  0
   -3.1216   -1.2084    5.4328 H   0  0  0  0  0  0  0  0  0  0  0  0
   -3.4041   -1.7853    3.7728 H   0  0  0  0  0  0  0  0  0  0  0  0
   -2.1644   -2.5627    4.7862 H   0  0  0  0  0  0  0  0  0  0  0  0
    1.4428    4.9151    2.9093 H   0  0  0  0  0  0  0  0  0  0  0  0
    1.4173    4.8569    4.6881 H   0  0  0  0  0  0  0  0  0  0  0  0
    3.3163    4.0921    5.8981 H   0  0  0  0  0  0  0  0  0  0  0  0
    6.9246    3.2859    4.0088 H   0  0  0  0  0  0  0  0  0  0  0  0
    2.1778    4.0805    1.2757 H   0  0  0  0  0  0  0  0  0  0  0  0
    5.9011    3.2423   -0.6307 H   0  0  0  0  0  0  0  0  0  0  0  0
    7.0442    3.1415    1.5173 H   0  0  0  0  0  0  0  0  0  0  0  0
    4.9714    4.2520   -2.1876 H   0  0  0  0  0  0  0  0  0  0  0  0
    4.6267    2.5082   -2.0946 H   0  0  0  0  0  0  0  0  0  0  0  0
    3.5723    3.5740   -3.0542 H   0  0  0  0  0  0  0  0  0  0  0  0
    5.5889    3.6408    5.8719 H   0  0  0  0  0  0  0  0  0  0  0  0
  1  2  1  0  0  0  0
  1 31  1  0  0  0  0
  1 32  1  0  0  0  0
  1 33  1  0  0  0  0
  2  3  1  0  0  0  0
  2  4  1  0  0  0  0
  2 34  1  0  0  0  0
  3 35  1  0  0  0  0
  3 36  1  0  0  0  0
  3 37  1  0  0  0  0
  4  5  1  0  0  0  0
  4 38  1  0  0  0  0
  4 39  1  0  0  0  0
  5 11  1  0  0  0  0
  5  6  1  0  0  0  0
  6 17  1  0  0  0  0
  6  7  2  0  0  0  0
  7  8  1  0  0  0  0
  7 14  1  0  0  0  0
  8  9  2  0  0  0  0
  8 10  1  0  0  0  0
 10 11  1  0  0  0  0
 10 13  1  0  0  0  0
 11 12  2  0  0  0  0
 13 40  1  0  0  0  0
 13 41  1  0  0  0  0
 13 42  1  0  0  0  0
 14 15  1  0  0  0  0
 14 16  1  0  0  0  0
 16 17  2  0  0  0  0
 16 18  1  0  0  0  0
 18 19  1  0  0  0  0
 18 43  1  0  0  0  0
 18 44  1  0  0  0  0
 19 24  2  0  0  0  0
 19 20  1  0  0  0  0
 20 21  2  0  0  0  0
 20 45  1  0  0  0  0
 21 22  1  0  0  0  0
 21 53  1  0  0  0  0
 22 23  2  0  0  0  0
 22 46  1  0  0  0  0
 23 28  1  0  0  0  0
 23 24  1  0  0  0  0
 24 25  1  0  0  0  0
 25 26  2  0  0  0  0
 25 47  1  0  0  0  0
 26 27  1  0  0  0  0
 26 29  1  0  0  0  0
 27 28  2  0  0  0  0
 27 48  1  0  0  0  0
 28 49  1  0  0  0  0
 29 30  1  0  0  0  0
 30 50  1  0  0  0  0
 30 51  1  0  0  0  0
 30 52  1  0  0  0  0
M  CHG  1  21   1
M  END
$$$$
CHEMBL298282
  -OEChem-07121202283D

 50 53  0     0  0  0  0  0  0999 V2000
   -0.0187    1.5258    0.0104 C   0  0  0  0  0  0  0  0  0  0  0  0
    0.0021   -0.0041    0.0020 C   0  0  0  0  0  0  0  0  0  0  0  0
    0.7182   -0.4975   -1.2568 C   0  0  0  0  0  0  0  0  0  0  0  0
    0.7376   -1.9263   -1.2646 O   0  0  0  0  0  0  0  0  0  0  0  0
    1.3405   -2.5286   -2.3210 C   0  0  0  0  0  0  0  0  0  0  0  0
    1.9074   -1.7597   -3.3271 C   0  0  0  0  0  0  0  0  0  0  0  0
    2.5210   -2.3660   -4.4022 C   0  0  0  0  0  0  0  0  0  0  0  0
    2.5771   -3.7602   -4.4866 C   0  0  0  0  0  0  0  0  0  0  0  0
    2.0120   -4.5413   -3.4826 C   0  0  0  0  0  0  0  0  0  0  0  0
    1.3956   -3.9277   -2.3925 C   0  0  0  0  0  0  0  0  0  0  0  0
    0.7989   -4.7480   -1.3209 C   0  0  0  0  0  0  0  0  0  0  0  0
    0.2176   -4.1404   -0.3140 N   0  0  0  0  0  0  0  0  0  0  0  0
   -0.3444   -4.8216    0.6921 C   0  0  0  0  0  0  0  0  0  0  0  0
   -0.3138   -6.2265    0.6743 C   0  0  0  0  0  0  0  0  0  0  0  0
   -0.9682   -6.6728    1.8376 C   0  0  0  0  0  0  0  0  0  0  0  0
   -1.3661   -5.6291    2.5114 N   0  0  0  0  0  0  0  0  0  0  0  0
   -0.9962   -4.4627    1.8303 N   0  0  0  0  0  0  0  0  0  0  0  0
   -1.2653   -3.0910    2.2688 C   0  0  0  0  0  0  0  0  0  0  0  0
   -1.1744   -8.1113    2.2367 C   0  0  0  0  0  0  0  0  0  0  0  0
    0.3372   -6.8915   -0.4540 C   0  0  0  0  0  0  0  0  0  0  0  0
    0.8700   -6.1093   -1.4216 N   0  0  0  0  0  0  0  0  0  0  0  0
    0.3940   -8.1066   -0.5227 O   0  0  0  0  0  0  0  0  0  0  0  0
    3.2362   -4.4051   -5.6425 C   0  0  0  0  0  0  0  0  0  0  0  0
    3.8499   -3.8247   -6.7198 C   0  0  0  0  0  0  0  0  0  0  0  0
    4.4010   -4.6385   -7.6860 C   0  0  0  0  0  0  0  0  0  0  0  0
    4.3192   -5.9856   -7.5413 C   0  0  0  0  0  0  0  0  0  0  0  0
    3.4456   -6.1432   -5.9925 S   0  0  0  0  0  0  0  0  0  0  0  0
    4.8380   -7.0694   -8.4509 C   0  0  0  0  0  0  0  0  0  0  0  0
    1.0039    1.9031    0.0027 H   0  0  0  0  0  0  0  0  0  0  0  0
   -0.5459    1.8868   -0.8726 H   0  0  0  0  0  0  0  0  0  0  0  0
   -0.5289    1.8773    0.9072 H   0  0  0  0  0  0  0  0  0  0  0  0
    0.5293   -0.3651    0.8851 H   0  0  0  0  0  0  0  0  0  0  0  0
   -1.0205   -0.3814    0.0098 H   0  0  0  0  0  0  0  0  0  0  0  0
    0.1910   -0.1364   -2.1398 H   0  0  0  0  0  0  0  0  0  0  0  0
    1.7408   -0.1202   -1.2645 H   0  0  0  0  0  0  0  0  0  0  0  0
    1.8674   -0.6820   -3.2679 H   0  0  0  0  0  0  0  0  0  0  0  0
    2.9597   -1.7617   -5.1824 H   0  0  0  0  0  0  0  0  0  0  0  0
    2.0539   -5.6186   -3.5459 H   0  0  0  0  0  0  0  0  0  0  0  0
   -2.2255   -2.7638    1.8700 H   0  0  0  0  0  0  0  0  0  0  0  0
   -1.2934   -3.0567    3.3579 H   0  0  0  0  0  0  0  0  0  0  0  0
   -0.4771   -2.4319    1.9048 H   0  0  0  0  0  0  0  0  0  0  0  0
   -0.3306   -8.4454    2.8403 H   0  0  0  0  0  0  0  0  0  0  0  0
   -2.0933   -8.1994    2.8163 H   0  0  0  0  0  0  0  0  0  0  0  0
   -1.2485   -8.7295    1.3420 H   0  0  0  0  0  0  0  0  0  0  0  0
    3.9010   -2.7498   -6.8110 H   0  0  0  0  0  0  0  0  0  0  0  0
    4.8913   -4.2098   -8.5475 H   0  0  0  0  0  0  0  0  0  0  0  0
    5.8560   -7.3302   -8.1613 H   0  0  0  0  0  0  0  0  0  0  0  0
    4.2000   -7.9493   -8.3684 H   0  0  0  0  0  0  0  0  0  0  0  0
    4.8334   -6.7125   -9.4808 H   0  0  0  0  0  0  0  0  0  0  0  0
    1.3063   -6.5158   -2.1866 H   0  0  0  0  0  0  0  0  0  0  0  0
  1  2  1  0  0  0  0
  1 29  1  0  0  0  0
  1 30  1  0  0  0  0
  1 31  1  0  0  0  0
  2  3  1  0  0  0  0
  2 32  1  0  0  0  0
  2 33  1  0  0  0  0
  3  4  1  0  0  0  0
  3 34  1  0  0  0  0
  3 35  1  0  0  0  0
  4  5  1  0  0  0  0
  5 10  2  0  0  0  0
  5  6  1  0  0  0  0
  6  7  2  0  0  0  0
  6 36  1  0  0  0  0
  7  8  1  0  0  0  0
  7 37  1  0  0  0  0
  8  9  2  0  0  0  0
  8 23  1  0  0  0  0
  9 10  1  0  0  0  0
  9 38  1  0  0  0  0
 10 11  1  0  0  0  0
 11 21  1  0  0  0  0
 11 12  2  0  0  0  0
 12 13  1  0  0  0  0
 13 17  1  0  0  0  0
 13 14  2  0  0  0  0
 14 15  1  0  0  0  0
 14 20  1  0  0  0  0
 15 16  2  0  0  0  0
 15 19  1  0  0  0  0
 16 17  1  0  0  0  0
 17 18  1  0  0  0  0
 18 39  1  0  0  0  0
 18 40  1  0  0  0  0
 18 41  1  0  0  0  0
 19 42  1  0  0  0  0
 19 43  1  0  0  0  0
 19 44  1  0  0  0  0
 20 21  1  0  0  0  0
 20 22  2  0  0  0  0
 21 50  1  0  0  0  0
 23 27  1  0  0  0  0
 23 24  2  0  0  0  0
 24 25  1  0  0  0  0
 24 45  1  0  0  0  0
 25 26  2  0  0  0  0
 25 46  1  0  0  0  0
 26 27  1  0  0  0  0
 26 28  1  0  0  0  0
 28 47  1  0  0  0  0
 28 48  1  0  0  0  0
 28 49  1  0  0  0  0
M  END
$$$$
CHEMBL11709
  -OEChem-07121202283D

 30 32  0     0  0  0  0  0  0999 V2000
   -0.0187    1.5258    0.0104 C   0  0  0  0  0  0  0  0  0  0  0  0
    0.0021   -0.0041    0.0020 C   0  0  0  0  0  0  0  0  0  0  0  0
    0.6932   -0.4774    1.1597 O   0  0  0  0  0  0  0  0  0  0  0  0
    0.8010   -1.8125    1.3044 C   0  0  0  0  0  0  0  0  0  0  0  0
    0.3215   -2.5545    0.4707 O   0  0  0  0  0  0  0  0  0  0  0  0
    1.5026   -2.3743    2.4772 C   0  0  0  0  0  0  0  0  0  0  0  0
    1.6143   -3.7553    2.6160 C   0  0  0  0  0  0  0  0  0  0  0  0
    2.2792   -4.2624    3.7284 C   0  0  0  0  0  0  0  0  0  0  0  0
    2.5953   -5.6144    4.2150 C   0  0  0  0  0  0  0  0  0  0  0  0
    2.3393   -6.8954    3.7304 C   0  0  0  0  0  0  0  0  0  0  0  0
    2.7783   -7.9949    4.4350 C   0  0  0  0  0  0  0  0  0  0  0  0
    3.4736   -7.8308    5.6237 C   0  0  0  0  0  0  0  0  0  0  0  0
    3.7339   -6.5702    6.1150 C   0  0  0  0  0  0  0  0  0  0  0  0
    3.2989   -5.4466    5.4180 C   0  0  0  0  0  0  0  0  0  0  0  0
    3.4169   -4.0919    5.6699 N   0  0  0  0  0  0  0  0  0  0  0  0
    2.8128   -3.3630    4.6699 C   0  0  0  0  0  0  0  0  0  0  0  0
    2.6538   -1.9943    4.4511 C   0  0  0  0  0  0  0  0  0  0  0  0
    2.0253   -1.5542    3.3864 N   0  0  0  0  0  0  0  0  0  0  0  0
    1.0039    1.9031    0.0027 H   0  0  0  0  0  0  0  0  0  0  0  0
   -0.5459    1.8868   -0.8726 H   0  0  0  0  0  0  0  0  0  0  0  0
   -0.5289    1.8773    0.9072 H   0  0  0  0  0  0  0  0  0  0  0  0
   -1.0205   -0.3814    0.0098 H   0  0  0  0  0  0  0  0  0  0  0  0
    0.5123   -0.3556   -0.8948 H   0  0  0  0  0  0  0  0  0  0  0  0
    1.1933   -4.4194    1.8756 H   0  0  0  0  0  0  0  0  0  0  0  0
    1.7978   -7.0261    2.8052 H   0  0  0  0  0  0  0  0  0  0  0  0
    2.5801   -8.9882    4.0604 H   0  0  0  0  0  0  0  0  0  0  0  0
    3.8135   -8.6987    6.1693 H   0  0  0  0  0  0  0  0  0  0  0  0
    4.2762   -6.4537    7.0417 H   0  0  0  0  0  0  0  0  0  0  0  0
    3.0568   -1.2892    5.1630 H   0  0  0  0  0  0  0  0  0  0  0  0
    3.8619   -3.7092    6.4422 H   0  0  0  0  0  0  0  0  0  0  0  0
  1  2  1  0  0  0  0
  1 19  1  0  0  0  0
  1 20  1  0  0  0  0
  1 21  1  0  0  0  0
  2  3  1  0  0  0  0
  2 22  1  0  0  0  0
  2 23  1  0  0  0  0
  3  4  1  0  0  0  0
  4  5  2  0  0  0  0
  4  6  1  0  0  0  0
  6 18  2  0  0  0  0
  6  7  1  0  0  0  0
  7  8  2  0  0  0  0
  7 24  1  0  0  0  0
  8 16  1  0  0  0  0
  8  9  1  0  0  0  0
  9 14  2  0  0  0  0
  9 10  1  0  0  0  0
 10 11  2  0  0  0  0
 10 25  1  0  0  0  0
 11 12  1  0  0  0  0
 11 26  1  0  0  0  0
 12 13  2  0  0  0  0
 12 27  1  0  0  0  0
 13 14  1  0  0  0  0
 13 28  1  0  0  0  0
 14 15  1  0  0  0  0
 15 16  1  0  0  0  0
 15 30  1  0  0  0  0
 16 17  2  0  0  0  0
 17 18  1  0  0  0  0
 17 29  1  0  0  0  0
M  END
$$$$
CHEMBL11709
  -OEChem-07121202283D

 31 33  0     0  0  0  0  0  0999 V2000
   -0.0187    1.5258    0.0104 C   0  0  0  0  0  0  0  0  0  0  0  0
    0.0021   -0.0041    0.0020 C   0  0  0  0  0  0  0  0  0  0  0  0
    0.6709   -0.4649   -1.1737 O   0  0  0  0  0  0  0  0  0  0  0  0
    0.7758   -1.7984   -1.3347 C   0  0  0  0  0  0  0  0  0  0  0  0
    0.3122   -2.5493   -0.5000 O   0  0  0  0  0  0  0  0  0  0  0  0
    1.4548   -2.3474   -2.5266 C   0  0  0  0  0  0  0  0  0  0  0  0
    1.5538   -3.7270   -2.6880 C   0  0  0  0  0  0  0  0  0  0  0  0
    2.1974   -4.2220   -3.8182 C   0  0  0  0  0  0  0  0  0  0  0  0
    2.4947   -5.5688   -4.3305 C   0  0  0  0  0  0  0  0  0  0  0  0
    2.2352   -6.8550   -3.8620 C   0  0  0  0  0  0  0  0  0  0  0  0
    2.6535   -7.9469   -4.5907 C   0  0  0  0  0  0  0  0  0  0  0  0
    3.3312   -7.7700   -5.7877 C   0  0  0  0  0  0  0  0  0  0  0  0
    3.5947   -6.5040   -6.2632 C   0  0  0  0  0  0  0  0  0  0  0  0
    3.1805   -5.3879   -5.5419 C   0  0  0  0  0  0  0  0  0  0  0  0
    3.3056   -4.0304   -5.7748 N   0  0  0  0  0  0  0  0  0  0  0  0
    2.7234   -3.3124   -4.7542 C   0  0  0  0  0  0  0  0  0  0  0  0
    2.5790   -1.9460   -4.5119 C   0  0  0  0  0  0  0  0  0  0  0  0
    1.9602   -1.5175   -3.4368 N   0  3  0  0  0  0  0  0  0  0  0  0
    1.8718   -0.5616   -3.2980 H   0  0  0  0  0  0  0  0  0  0  0  0
    1.0039    1.9031    0.0027 H   0  0  0  0  0  0  0  0  0  0  0  0
   -0.5459    1.8868   -0.8726 H   0  0  0  0  0  0  0  0  0  0  0  0
   -0.5289    1.8773    0.9072 H   0  0  0  0  0  0  0  0  0  0  0  0
    0.5293   -0.3651    0.8851 H   0  0  0  0  0  0  0  0  0  0  0  0
   -1.0205   -0.3814    0.0098 H   0  0  0  0  0  0  0  0  0  0  0  0
    1.1398   -4.3991   -1.9509 H   0  0  0  0  0  0  0  0  0  0  0  0
    1.7080   -6.9958   -2.9300 H   0  0  0  0  0  0  0  0  0  0  0  0
    2.4532   -8.9444   -4.2283 H   0  0  0  0  0  0  0  0  0  0  0  0
    3.6554   -8.6320   -6.3518 H   0  0  0  0  0  0  0  0  0  0  0  0
    4.1232   -6.3775   -7.1965 H   0  0  0  0  0  0  0  0  0  0  0  0
    2.9763   -1.2332   -5.2193 H   0  0  0  0  0  0  0  0  0  0  0  0
    3.7422   -3.6394   -6.5476 H   0  0  0  0  0  0  0  0  0  0  0  0
  1  2  1  0  0  0  0
  1 20  1  0  0  0  0
  1 21  1  0  0  0  0
  1 22  1  0  0  0  0
  2  3  1  0  0  0  0
  2 23  1  0  0  0  0
  2 24  1  0  0  0  0
  3  4  1  0  0  0  0
  4  5  2  0  0  0  0
  4  6  1  0  0  0  0
  6 18  2  0  0  0  0
  6  7  1  0  0  0  0
  7  8  2  0  0  0  0
  7 25  1  0  0  0  0
  8 16  1  0  0  0  0
  8  9  1  0  0  0  0
  9 14  2  0  0  0  0
  9 10  1  0  0  0  0
 10 11  2  0  0  0  0
 10 26  1  0  0  0  0
 11 12  1  0  0  0  0
 11 27  1  0  0  0  0
 12 13  2  0  0  0  0
 12 28  1  0  0  0  0
 13 14  1  0  0  0  0
 13 29  1  0  0  0  0
 14 15  1  0  0  0  0
 15 16  1  0  0  0  0
 15 31  1  0  0  0  0
 16 17  2  0  0  0  0
 17 18  1  0  0  0  0
 17 30  1  0  0  0  0
 18 19  1  0  0  0  0
M  CHG  1  18   1
M  END
$$$$
CHEMBL567016
  -OEChem-07121202283D

 64 67  0     0  0  0  0  0  0999 V2000
   -0.0187    1.5258    0.0104 C   0  0  0  0  0  0  0  0  0  0  0  0
    0.0021   -0.0041    0.0020 C   0  0  0  0  0  0  0  0  0  0  0  0
   -1.4333   -0.5336    0.0129 C   0  0  0  0  0  0  0  0  0  0  0  0
   -1.4139   -1.9625    0.0050 O   0  0  0  0  0  0  0  0  0  0  0  0
   -2.7113   -2.5614    0.0142 C   0  0  0  0  0  0  0  0  0  0  0  0
   -2.5698   -4.0848    0.0047 C   0  0  0  0  0  0  0  0  0  0  0  0
   -1.9315   -4.5238    1.2481 N   0  0  0  0  0  0  0  0  0  0  0  0
   -0.5552   -4.6259    1.3321 C   0  0  0  0  0  0  0  0  0  0  0  0
    0.2383   -4.3122    0.2334 C   0  0  0  0  0  0  0  0  0  0  0  0
    1.6218   -4.4290    0.3629 C   0  0  0  0  0  0  0  0  0  0  0  0
    2.1594   -4.8539    1.5828 C   0  0  0  0  0  0  0  0  0  0  0  0
    1.3858   -5.1427    2.6017 N   0  0  0  0  0  0  0  0  0  0  0  0
    0.0556   -5.0467    2.5273 C   0  0  0  0  0  0  0  0  0  0  0  0
   -0.6954   -5.3552    3.6048 N   0  0  0  0  0  0  0  0  0  0  0  0
   -2.0011   -5.2721    3.5660 C   0  0  0  0  0  0  0  0  0  0  0  0
   -2.6788   -4.8295    2.3316 C   0  0  0  0  0  0  0  0  0  0  0  0
   -3.8922   -4.7448    2.2892 O   0  0  0  0  0  0  0  0  0  0  0  0
   -2.7459   -5.5940    4.6838 N   0  0  0  0  0  0  0  0  0  0  0  0
   -2.0743   -6.0280    5.9114 C   0  0  0  0  0  0  0  0  0  0  0  0
   -3.1205   -6.3206    6.9888 C   0  0  0  0  0  0  0  0  0  0  0  0
   -3.8401   -5.0233    7.3701 C   0  0  0  0  0  0  0  0  0  0  0  0
   -4.8286   -5.3112    8.5030 C   0  0  0  0  0  0  0  0  0  0  0  0
   -4.1267   -5.8698    9.6154 O   0  0  0  0  0  0  0  0  0  0  0  0
   -3.4735   -7.1085    9.3307 C   0  0  0  0  0  0  0  0  0  0  0  0
   -2.4305   -6.8928    8.2310 C   0  0  0  0  0  0  0  0  0  0  0  0
    2.5122   -4.1074   -0.7781 C   0  0  0  0  0  0  0  0  0  0  0  0
    3.9009   -4.2296   -0.6515 C   0  0  0  0  0  0  0  0  0  0  0  0
    4.6894   -3.9185   -1.7421 C   0  0  0  0  0  0  0  0  0  0  0  0
    4.0833   -3.4976   -2.9204 C   0  0  0  0  0  0  0  0  0  0  0  0
    2.7674   -3.3924   -3.0078 N   0  0  0  0  0  0  0  0  0  0  0  0
    1.9788   -3.6848   -1.9930 C   0  0  0  0  0  0  0  0  0  0  0  0
    4.8517   -3.1900   -3.9951 O   0  0  0  0  0  0  0  0  0  0  0  0
    4.1724   -2.7634   -5.1777 C   0  0  0  0  0  0  0  0  0  0  0  0
    1.0039    1.9031    0.0027 H   0  0  0  0  0  0  0  0  0  0  0  0
   -0.5459    1.8868   -0.8726 H   0  0  0  0  0  0  0  0  0  0  0  0
   -0.5289    1.8773    0.9072 H   0  0  0  0  0  0  0  0  0  0  0  0
    0.5123   -0.3556   -0.8948 H   0  0  0  0  0  0  0  0  0  0  0  0
    0.5293   -0.3651    0.8851 H   0  0  0  0  0  0  0  0  0  0  0  0
   -1.9435   -0.1821    0.9097 H   0  0  0  0  0  0  0  0  0  0  0  0
   -1.9605   -0.1726   -0.8702 H   0  0  0  0  0  0  0  0  0  0  0  0
   -3.2480   -2.2520    0.9110 H   0  0  0  0  0  0  0  0  0  0  0  0
   -3.2650   -2.2424   -0.8688 H   0  0  0  0  0  0  0  0  0  0  0  0
   -3.5564   -4.5409   -0.0779 H   0  0  0  0  0  0  0  0  0  0  0  0
   -1.9574   -4.3876   -0.8447 H   0  0  0  0  0  0  0  0  0  0  0  0
   -0.2057   -3.9870   -0.6959 H   0  0  0  0  0  0  0  0  0  0  0  0
    3.2304   -4.9460    1.6871 H   0  0  0  0  0  0  0  0  0  0  0  0
   -3.7135   -5.5327    4.6560 H   0  0  0  0  0  0  0  0  0  0  0  0
   -1.4976   -6.9308    5.7103 H   0  0  0  0  0  0  0  0  0  0  0  0
   -1.4062   -5.2398    6.2582 H   0  0  0  0  0  0  0  0  0  0  0  0
   -3.8437   -7.0421    6.6086 H   0  0  0  0  0  0  0  0  0  0  0  0
   -3.1096   -4.2858    7.7027 H   0  0  0  0  0  0  0  0  0  0  0  0
   -4.3797   -4.6383    6.5048 H   0  0  0  0  0  0  0  0  0  0  0  0
   -5.3128   -4.3833    8.8076 H   0  0  0  0  0  0  0  0  0  0  0  0
   -5.5825   -6.0181    8.1567 H   0  0  0  0  0  0  0  0  0  0  0  0
   -2.9814   -7.4754   10.2314 H   0  0  0  0  0  0  0  0  0  0  0  0
   -4.2097   -7.8390    8.9952 H   0  0  0  0  0  0  0  0  0  0  0  0
   -1.9621   -7.8449    7.9814 H   0  0  0  0  0  0  0  0  0  0  0  0
   -1.6716   -6.1931    8.5809 H   0  0  0  0  0  0  0  0  0  0  0  0
    4.3450   -4.5588    0.2763 H   0  0  0  0  0  0  0  0  0  0  0  0
    5.7644   -4.0010   -1.6801 H   0  0  0  0  0  0  0  0  0  0  0  0
    0.9085   -3.5916   -2.1034 H   0  0  0  0  0  0  0  0  0  0  0  0
    3.5973   -1.8630   -4.9616 H   0  0  0  0  0  0  0  0  0  0  0  0
    4.9019   -2.5498   -5.9588 H   0  0  0  0  0  0  0  0  0  0  0  0
    3.4996   -3.5520   -5.5147 H   0  0  0  0  0  0  0  0  0  0  0  0
  1  2  1  0  0  0  0
  1 34  1  0  0  0  0
  1 35  1  0  0  0  0
  1 36  1  0  0  0  0
  2  3  1  0  0  0  0
  2 37  1  0  0  0  0
  2 38  1  0  0  0  0
  3  4  1  0  0  0  0
  3 39  1  0  0  0  0
  3 40  1  0  0  0  0
  4  5  1  0  0  0  0
  5  6  1  0  0  0  0
  5 41  1  0  0  0  0
  5 42  1  0  0  0  0
  6  7  1  0  0  0  0
  6 43  1  0  0  0  0
  6 44  1  0  0  0  0
  7 16  1  0  0  0  0
  7  8  1  0  0  0  0
  8 13  2  0  0  0  0
  8  9  1  0  0  0  0
  9 10  2  0  0  0  0
  9 45  1  0  0  0  0
 10 11  1  0  0  0  0
 10 26  1  0  0  0  0
 11 12  2  0  0  0  0
 11 46  1  0  0  0  0
 12 13  1  0  0  0  0
 13 14  1  0  0  0  0
 14 15  2  0  0  0  0
 15 16  1  0  0  0  0
 15 18  1  0  0  0  0
 16 17  2  0  0  0  0
 18 19  1  0  0  0  0
 18 47  1  0  0  0  0
 19 20  1  0  0  0  0
 19 48  1  0  0  0  0
 19 49  1  0  0  0  0
 20 25  1  0  0  0  0
 20 21  1  0  0  0  0
 20 50  1  0  0  0  0
 21 22  1  0  0  0  0
 21 51  1  0  0  0  0
 21 52  1  0  0  0  0
 22 23  1  0  0  0  0
 22 53  1  0  0  0  0
 22 54  1  0  0  0  0
 23 24  1  0  0  0  0
 24 25  1  0  0  0  0
 24 55  1  0  0  0  0
 24 56  1  0  0  0  0
 25 57  1  0  0  0  0
 25 58  1  0  0  0  0
 26 31  2  0  0  0  0
 26 27  1  0  0  0  0
 27 28  2  0  0  0  0
 27 59  1  0  0  0  0
 28 29  1  0  0  0  0
 28 60  1  0  0  0  0
 29 30  2  0  0  0  0
 29 32  1  0  0  0  0
 30 31  1  0  0  0  0
 31 61  1  0  0  0  0
 32 33  1  0  0  0  0
 33 62  1  0  0  0  0
 33 63  1  0  0  0  0
 33 64  1  0  0  0  0
M  END
$$$$
CHEMBL565306
  -OEChem-07121202283D

 65 68  0     0  0  0  0  0  0999 V2000
   -0.0187    1.5258    0.0104 C   0  0  0  0  0  0  0  0  0  0  0  0
    0.0021   -0.0041    0.0020 C   0  0  0  0  0  0  0  0  0  0  0  0
   -1.4333   -0.5336    0.0129 C   0  0  0  0  0  0  0  0  0  0  0  0
   -1.4139   -1.9625    0.0050 O   0  0  0  0  0  0  0  0  0  0  0  0
   -2.7113   -2.5614    0.0142 C   0  0  0  0  0  0  0  0  0  0  0  0
   -2.5698   -4.0848    0.0047 C   0  0  0  0  0  0  0  0  0  0  0  0
   -1.9315   -4.5238    1.2481 N   0  0  0  0  0  0  0  0  0  0  0  0
   -0.5589   -4.6260    1.3332 C   0  0  0  0  0  0  0  0  0  0  0  0
    0.2518   -4.3168    0.2469 C   0  0  0  0  0  0  0  0  0  0  0  0
    1.6302   -4.4358    0.3839 C   0  0  0  0  0  0  0  0  0  0  0  0
    2.1740   -4.8381    1.5299 N   0  0  0  0  0  0  0  0  0  0  0  0
    1.4483   -5.1407    2.5821 C   0  0  0  0  0  0  0  0  0  0  0  0
    0.0504   -5.0484    2.5319 C   0  0  0  0  0  0  0  0  0  0  0  0
   -0.6973   -5.3575    3.6092 N   0  0  0  0  0  0  0  0  0  0  0  0
   -2.0032   -5.2729    3.5673 C   0  0  0  0  0  0  0  0  0  0  0  0
   -2.6780   -4.8299    2.3328 C   0  0  0  0  0  0  0  0  0  0  0  0
   -3.8913   -4.7448    2.2901 O   0  0  0  0  0  0  0  0  0  0  0  0
   -2.7519   -5.5952    4.6854 N   0  0  0  0  0  0  0  0  0  0  0  0
   -2.0832   -6.0305    5.9141 C   0  0  0  0  0  0  0  0  0  0  0  0
   -3.1160   -6.3182    6.9732 C   0  0  0  0  0  0  0  0  0  0  0  0
   -4.2946   -6.1739    6.7259 O   0  0  0  0  0  0  0  0  0  0  0  0
   -2.7300   -6.7359    8.1950 N   0  0  0  0  0  0  0  0  0  0  0  0
   -1.3058   -6.9124    8.5203 C   0  0  0  0  0  0  0  0  0  0  0  0
   -1.0135   -6.1710    9.8298 C   0  0  0  0  0  0  0  0  0  0  0  0
   -1.9489   -6.5896   10.8266 O   0  0  0  0  0  0  0  0  0  0  0  0
   -3.3103   -6.2814   10.5177 C   0  0  0  0  0  0  0  0  0  0  0  0
   -3.7200   -7.0230    9.2452 C   0  0  0  0  0  0  0  0  0  0  0  0
    2.5080   -4.1099   -0.7649 C   0  0  0  0  0  0  0  0  0  0  0  0
    3.8891   -4.3266   -0.6873 C   0  0  0  0  0  0  0  0  0  0  0  0
    4.6661   -4.0074   -1.7835 C   0  0  0  0  0  0  0  0  0  0  0  0
    4.0567   -3.4855   -2.9193 C   0  0  0  0  0  0  0  0  0  0  0  0
    2.7484   -3.2923   -2.9607 N   0  0  0  0  0  0  0  0  0  0  0  0
    1.9703   -3.5891   -1.9394 C   0  0  0  0  0  0  0  0  0  0  0  0
    4.8139   -3.1699   -3.9993 O   0  0  0  0  0  0  0  0  0  0  0  0
    4.1318   -2.6377   -5.1366 C   0  0  0  0  0  0  0  0  0  0  0  0
    1.0039    1.9031    0.0027 H   0  0  0  0  0  0  0  0  0  0  0  0
   -0.5459    1.8868   -0.8726 H   0  0  0  0  0  0  0  0  0  0  0  0
   -0.5289    1.8773    0.9072 H   0  0  0  0  0  0  0  0  0  0  0  0
    0.5123   -0.3556   -0.8948 H   0  0  0  0  0  0  0  0  0  0  0  0
    0.5293   -0.3651    0.8851 H   0  0  0  0  0  0  0  0  0  0  0  0
   -1.9435   -0.1821    0.9097 H   0  0  0  0  0  0  0  0  0  0  0  0
   -1.9605   -0.1726   -0.8702 H   0  0  0  0  0  0  0  0  0  0  0  0
   -3.2480   -2.2520    0.9110 H   0  0  0  0  0  0  0  0  0  0  0  0
   -3.2650   -2.2424   -0.8688 H   0  0  0  0  0  0  0  0  0  0  0  0
   -3.5564   -4.5409   -0.0779 H   0  0  0  0  0  0  0  0  0  0  0  0
   -1.9574   -4.3876   -0.8447 H   0  0  0  0  0  0  0  0  0  0  0  0
   -0.1815   -3.9904   -0.6869 H   0  0  0  0  0  0  0  0  0  0  0  0
    1.9320   -5.4634    3.4923 H   0  0  0  0  0  0  0  0  0  0  0  0
   -3.7194   -5.5330    4.6557 H   0  0  0  0  0  0  0  0  0  0  0  0
   -1.5069   -6.9337    5.7137 H   0  0  0  0  0  0  0  0  0  0  0  0
   -1.4150   -5.2430    6.2627 H   0  0  0  0  0  0  0  0  0  0  0  0
   -1.0857   -7.9730    8.6418 H   0  0  0  0  0  0  0  0  0  0  0  0
   -0.6924   -6.4991    7.7196 H   0  0  0  0  0  0  0  0  0  0  0  0
   -0.0010   -6.4022   10.1608 H   0  0  0  0  0  0  0  0  0  0  0  0
   -1.1086   -5.0971    9.6693 H   0  0  0  0  0  0  0  0  0  0  0  0
   -3.9503   -6.5920   11.3436 H   0  0  0  0  0  0  0  0  0  0  0  0
   -3.4138   -5.2079   10.3597 H   0  0  0  0  0  0  0  0  0  0  0  0
   -4.7047   -6.6829    8.9243 H   0  0  0  0  0  0  0  0  0  0  0  0
   -3.7472   -8.0949    9.4409 H   0  0  0  0  0  0  0  0  0  0  0  0
    4.3359   -4.7330    0.2080 H   0  0  0  0  0  0  0  0  0  0  0  0
    5.7348   -4.1609   -1.7588 H   0  0  0  0  0  0  0  0  0  0  0  0
    0.9058   -3.4224   -2.0121 H   0  0  0  0  0  0  0  0  0  0  0  0
    4.8523   -2.4290   -5.9275 H   0  0  0  0  0  0  0  0  0  0  0  0
    3.4002   -3.3625   -5.4936 H   0  0  0  0  0  0  0  0  0  0  0  0
    3.6228   -1.7155   -4.8563 H   0  0  0  0  0  0  0  0  0  0  0  0
  1  2  1  0  0  0  0
  1 36  1  0  0  0  0
  1 37  1  0  0  0  0
  1 38  1  0  0  0  0
  2  3  1  0  0  0  0
  2 39  1  0  0  0  0
  2 40  1  0  0  0  0
  3  4  1  0  0  0  0
  3 41  1  0  0  0  0
  3 42  1  0  0  0  0
  4  5  1  0  0  0  0
  5  6  1  0  0  0  0
  5 43  1  0  0  0  0
  5 44  1  0  0  0  0
  6  7  1  0  0  0  0
  6 45  1  0  0  0  0
  6 46  1  0  0  0  0
  7 16  1  0  0  0  0
  7  8  1  0  0  0  0
  8 13  2  0  0  0  0
  8  9  1  0  0  0  0
  9 10  2  0  0  0  0
  9 47  1  0  0  0  0
 10 11  1  0  0  0  0
 10 28  1  0  0  0  0
 11 12  2  0  0  0  0
 12 13  1  0  0  0  0
 12 48  1  0  0  0  0
 13 14  1  0  0  0  0
 14 15  2  0  0  0  0
 15 16  1  0  0  0  0
 15 18  1  0  0  0  0
 16 17  2  0  0  0  0
 18 19  1  0  0  0  0
 18 49  1  0  0  0  0
 19 20  1  0  0  0  0
 19 50  1  0  0  0  0
 19 51  1  0  0  0  0
 20 21  2  0  0  0  0
 20 22  1  0  0  0  0
 22 27  1  0  0  0  0
 22 23  1  0  0  0  0
 23 24  1  0  0  0  0
 23 52  1  0  0  0  0
 23 53  1  0  0  0  0
 24 25  1  0  0  0  0
 24 54  1  0  0  0  0
 24 55  1  0  0  0  0
 25 26  1  0  0  0  0
 26 27  1  0  0  0  0
 26 56  1  0  0  0  0
 26 57  1  0  0  0  0
 27 58  1  0  0  0  0
 27 59  1  0  0  0  0
 28 33  2  0  0  0  0
 28 29  1  0  0  0  0
 29 30  2  0  0  0  0
 29 60  1  0  0  0  0
 30 31  1  0  0  0  0
 30 61  1  0  0  0  0
 31 32  2  0  0  0  0
 31 34  1  0  0  0  0
 32 33  1  0  0  0  0
 33 62  1  0  0  0  0
 34 35  1  0  0  0  0
 35 63  1  0  0  0  0
 35 64  1  0  0  0  0
 35 65  1  0  0  0  0
M  END
$$$$
CHEMBL565305
  -OEChem-07121202283D

 58 61  0     0  0  0  0  0  0999 V2000
   -0.0187    1.5258    0.0104 C   0  0  0  0  0  0  0  0  0  0  0  0
    0.0021   -0.0041    0.0020 C   0  0  0  0  0  0  0  0  0  0  0  0
    0.7182   -0.4975   -1.2568 C   0  0  0  0  0  0  0  0  0  0  0  0
    0.7376   -1.9263   -1.2646 O   0  0  0  0  0  0  0  0  0  0  0  0
    1.3873   -2.4925   -2.4045 C   0  0  0  0  0  0  0  0  0  0  0  0
    1.3486   -4.0190   -2.3077 C   0  0  0  0  0  0  0  0  0  0  0  0
   -0.0404   -4.4782   -2.3855 N   0  0  0  0  0  0  0  0  0  0  0  0
   -0.7985   -4.6151   -1.2416 C   0  0  0  0  0  0  0  0  0  0  0  0
   -0.2676   -4.3226    0.0096 C   0  0  0  0  0  0  0  0  0  0  0  0
   -1.0732   -4.4766    1.1322 C   0  0  0  0  0  0  0  0  0  0  0  0
   -2.3312   -4.8964    1.0220 N   0  0  0  0  0  0  0  0  0  0  0  0
   -2.8751   -5.1844   -0.1385 C   0  0  0  0  0  0  0  0  0  0  0  0
   -2.1345   -5.0568   -1.3218 C   0  0  0  0  0  0  0  0  0  0  0  0
   -2.6890   -5.3508   -2.5140 N   0  0  0  0  0  0  0  0  0  0  0  0
   -2.0015   -5.2333   -3.6220 C   0  0  0  0  0  0  0  0  0  0  0  0
   -0.6020   -4.7693   -3.5802 C   0  0  0  0  0  0  0  0  0  0  0  0
    0.0399   -4.6535   -4.6077 O   0  0  0  0  0  0  0  0  0  0  0  0
   -2.5906   -5.5407   -4.8356 N   0  0  0  0  0  0  0  0  0  0  0  0
   -3.9821   -5.9969   -4.8797 C   0  0  0  0  0  0  0  0  0  0  0  0
   -4.3787   -6.2623   -6.3092 C   0  0  0  0  0  0  0  0  0  0  0  0
   -4.2944   -7.5440   -6.8241 C   0  0  0  0  0  0  0  0  0  0  0  0
   -4.6425   -7.7767   -8.0773 N   0  0  0  0  0  0  0  0  0  0  0  0
   -5.0713   -6.7855   -8.8389 C   0  0  0  0  0  0  0  0  0  0  0  0
   -5.1555   -5.5041   -8.3241 C   0  0  0  0  0  0  0  0  0  0  0  0
   -4.8121   -5.2722   -7.0692 N   0  0  0  0  0  0  0  0  0  0  0  0
   -0.5220   -4.1688    2.4731 C   0  0  0  0  0  0  0  0  0  0  0  0
   -1.2760   -4.4203    3.6257 C   0  0  0  0  0  0  0  0  0  0  0  0
   -0.7199   -4.1169    4.8528 C   0  0  0  0  0  0  0  0  0  0  0  0
    0.5601   -3.5760    4.9035 C   0  0  0  0  0  0  0  0  0  0  0  0
    1.2467   -3.3498    3.7954 N   0  0  0  0  0  0  0  0  0  0  0  0
    0.7557   -3.6306    2.6051 C   0  0  0  0  0  0  0  0  0  0  0  0
    1.1121   -3.2757    6.1054 O   0  0  0  0  0  0  0  0  0  0  0  0
    2.4297   -2.7225    6.0941 C   0  0  0  0  0  0  0  0  0  0  0  0
    1.0039    1.9031    0.0027 H   0  0  0  0  0  0  0  0  0  0  0  0
   -0.5459    1.8868   -0.8726 H   0  0  0  0  0  0  0  0  0  0  0  0
   -0.5289    1.8773    0.9072 H   0  0  0  0  0  0  0  0  0  0  0  0
    0.5293   -0.3651    0.8851 H   0  0  0  0  0  0  0  0  0  0  0  0
   -1.0205   -0.3814    0.0098 H   0  0  0  0  0  0  0  0  0  0  0  0
    0.1910   -0.1364   -2.1398 H   0  0  0  0  0  0  0  0  0  0  0  0
    1.7408   -0.1202   -1.2645 H   0  0  0  0  0  0  0  0  0  0  0  0
    0.8740   -2.1729   -3.3114 H   0  0  0  0  0  0  0  0  0  0  0  0
    2.4238   -2.1566   -2.4361 H   0  0  0  0  0  0  0  0  0  0  0  0
    1.9203   -4.4498   -3.1297 H   0  0  0  0  0  0  0  0  0  0  0  0
    1.7828   -4.3340   -1.3589 H   0  0  0  0  0  0  0  0  0  0  0  0
    0.7526   -3.9821    0.1078 H   0  0  0  0  0  0  0  0  0  0  0  0
   -3.9000   -5.5223   -0.1812 H   0  0  0  0  0  0  0  0  0  0  0  0
   -2.0824   -5.4541   -5.6573 H   0  0  0  0  0  0  0  0  0  0  0  0
   -4.0825   -6.9136   -4.2986 H   0  0  0  0  0  0  0  0  0  0  0  0
   -4.6302   -5.2277   -4.4597 H   0  0  0  0  0  0  0  0  0  0  0  0
   -3.9437   -8.3540   -6.2018 H   0  0  0  0  0  0  0  0  0  0  0  0
   -5.3555   -6.9756   -9.8633 H   0  0  0  0  0  0  0  0  0  0  0  0
   -5.5059   -4.6941   -8.9466 H   0  0  0  0  0  0  0  0  0  0  0  0
   -2.2683   -4.8410    3.5568 H   0  0  0  0  0  0  0  0  0  0  0  0
   -1.2730   -4.2974    5.7627 H   0  0  0  0  0  0  0  0  0  0  0  0
    1.3481   -3.4370    1.7231 H   0  0  0  0  0  0  0  0  0  0  0  0
    3.1157   -3.4275    5.6246 H   0  0  0  0  0  0  0  0  0  0  0  0
    2.4269   -1.7889    5.5316 H   0  0  0  0  0  0  0  0  0  0  0  0
    2.7513   -2.5292    7.1175 H   0  0  0  0  0  0  0  0  0  0  0  0
  1  2  1  0  0  0  0
  1 34  1  0  0  0  0
  1 35  1  0  0  0  0
  1 36  1  0  0  0  0
  2  3  1  0  0  0  0
  2 37  1  0  0  0  0
  2 38  1  0  0  0  0
  3  4  1  0  0  0  0
  3 39  1  0  0  0  0
  3 40  1  0  0  0  0
  4  5  1  0  0  0  0
  5  6  1  0  0  0  0
  5 41  1  0  0  0  0
  5 42  1  0  0  0  0
  6  7  1  0  0  0  0
  6 43  1  0  0  0  0
  6 44  1  0  0  0  0
  7 16  1  0  0  0  0
  7  8  1  0  0  0  0
  8 13  2  0  0  0  0
  8  9  1  0  0  0  0
  9 10  2  0  0  0  0
  9 45  1  0  0  0  0
 10 11  1  0  0  0  0
 10 26  1  0  0  0  0
 11 12  2  0  0  0  0
 12 13  1  0  0  0  0
 12 46  1  0  0  0  0
 13 14  1  0  0  0  0
 14 15  2  0  0  0  0
 15 16  1  0  0  0  0
 15 18  1  0  0  0  0
 16 17  2  0  0  0  0
 18 19  1  0  0  0  0
 18 47  1  0  0  0  0
 19 20  1  0  0  0  0
 19 48  1  0  0  0  0
 19 49  1  0  0  0  0
 20 25  2  0  0  0  0
 20 21  1  0  0  0  0
 21 22  2  0  0  0  0
 21 50  1  0  0  0  0
 22 23  1  0  0  0  0
 23 24  2  0  0  0  0
 23 51  1  0  0  0  0
 24 25  1  0  0  0  0
 24 52  1  0  0  0  0
 26 31  2  0  0  0  0
 26 27  1  0  0  0  0
 27 28  2  0  0  0  0
 27 53  1  0  0  0  0
 28 29  1  0  0  0  0
 28 54  1  0  0  0  0
 29 30  2  0  0  0  0
 29 32  1  0  0  0  0
 30 31  1  0  0  0  0
 31 55  1  0  0  0  0
 32 33  1  0  0  0  0
 33 56  1  0  0  0  0
 33 57  1  0  0  0  0
 33 58  1  0  0  0  0
M  END
$$$$
CHEMBL1095440
  -OEChem-07121202283D

 60 63  0     0  0  0  0  0  0999 V2000
   -0.1635    0.5631   -0.5356 C   0  0  0  0  0  0  0  0  0  0  0  0
   -0.2441   -0.9035   -0.1074 C   0  0  0  0  0  0  0  0  0  0  0  0
    0.4904   -1.0876    1.1956 C   0  0  0  0  0  0  0  0  0  0  0  0
    1.8591   -1.4038    1.3301 C   0  0  0  0  0  0  0  0  0  0  0  0
    2.1269   -1.4814    2.7080 C   0  0  0  0  0  0  0  0  0  0  0  0
    3.4318   -1.7862    3.1199 C   0  0  0  0  0  0  0  0  0  0  0  0
    4.3606   -1.9889    2.1934 N   0  0  0  0  0  0  0  0  0  0  0  0
    4.0709   -1.9072    0.8998 C   0  0  0  0  0  0  0  0  0  0  0  0
    2.8579   -1.6233    0.4643 N   0  0  0  0  0  0  0  0  0  0  0  0
    5.0787   -2.1276   -0.0258 N   0  0  0  0  0  0  0  0  0  0  0  0
    4.7979   -1.8849   -1.4553 C   0  0  0  0  0  0  0  0  0  0  0  0
    5.9848   -1.1847   -2.1416 C   0  0  0  0  0  0  0  0  0  0  0  0
    6.5624   -0.1430   -1.2091 C   0  0  0  0  0  0  0  0  0  0  0  0
    7.6610   -0.7334   -0.4478 N   0  3  0  0  0  0  0  0  0  0  0  0
    7.2778   -1.3738    0.7515 C   0  0  0  0  0  0  0  0  0  0  0  0
    6.3712   -2.5820    0.4441 C   0  0  0  0  0  0  0  0  0  0  0  0
    3.7458   -1.8736    4.4671 N   0  0  0  0  0  0  0  0  0  0  0  0
    5.0225   -2.2505    4.8588 C   0  0  0  0  0  0  0  0  0  0  0  0
    6.0996   -2.1277    3.9790 C   0  0  0  0  0  0  0  0  0  0  0  0
    7.3509   -2.5160    4.4164 C   0  0  0  0  0  0  0  0  0  0  0  0
    7.4876   -2.9890    5.6472 N   0  0  0  0  0  0  0  0  0  0  0  0
    6.4508   -3.0925    6.4536 C   0  0  0  0  0  0  0  0  0  0  0  0
    5.2405   -2.7293    6.0798 N   0  0  0  0  0  0  0  0  0  0  0  0
    0.9481   -1.2180    3.3552 N   0  0  0  0  0  0  0  0  0  0  0  0
   -0.0327   -0.9754    2.3844 N   0  0  0  0  0  0  0  0  0  0  0  0
    0.7497   -1.1897    4.8064 C   0  0  0  0  0  0  0  0  0  0  0  0
    1.1421    0.1863    5.3481 C   0  0  0  0  0  0  0  0  0  0  0  0
    0.9485    0.2139    6.7637 O   0  0  0  0  0  0  0  0  0  0  0  0
    1.2873    1.4615    7.3725 C   0  0  0  0  0  0  0  0  0  0  0  0
    1.0421    1.3765    8.8803 C   0  0  0  0  0  0  0  0  0  0  0  0
    1.8352    0.3610    9.4252 F   0  0  0  0  0  0  0  0  0  0  0  0
    1.3738    2.5979    9.4763 F   0  0  0  0  0  0  0  0  0  0  0  0
   -0.3071    1.0928    9.1180 F   0  0  0  0  0  0  0  0  0  0  0  0
    0.8810    0.8473   -0.6639 H   0  0  0  0  0  0  0  0  0  0  0  0
   -0.6947    0.6962   -1.4780 H   0  0  0  0  0  0  0  0  0  0  0  0
   -0.6193    1.1907    0.2302 H   0  0  0  0  0  0  0  0  0  0  0  0
   -1.2885   -1.1877    0.0209 H   0  0  0  0  0  0  0  0  0  0  0  0
    0.2118   -1.5312   -0.8732 H   0  0  0  0  0  0  0  0  0  0  0  0
    4.6103   -2.8380   -1.9498 H   0  0  0  0  0  0  0  0  0  0  0  0
    3.9118   -1.2564   -1.5441 H   0  0  0  0  0  0  0  0  0  0  0  0
    6.7512   -1.9213   -2.3830 H   0  0  0  0  0  0  0  0  0  0  0  0
    5.6424   -0.7028   -3.0574 H   0  0  0  0  0  0  0  0  0  0  0  0
    6.9347    0.7000   -1.7911 H   0  0  0  0  0  0  0  0  0  0  0  0
    5.7881    0.2009   -0.5234 H   0  0  0  0  0  0  0  0  0  0  0  0
    8.1279   -1.4088   -1.0343 H   0  0  0  0  0  0  0  0  0  0  0  0
    8.1685   -1.7144    1.2795 H   0  0  0  0  0  0  0  0  0  0  0  0
    6.7359   -0.6677    1.3807 H   0  0  0  0  0  0  0  0  0  0  0  0
    6.2401   -3.1713    1.3516 H   0  0  0  0  0  0  0  0  0  0  0  0
    6.8392   -3.1990   -0.3230 H   0  0  0  0  0  0  0  0  0  0  0  0
    3.0731   -1.6713    5.1360 H   0  0  0  0  0  0  0  0  0  0  0  0
    5.9579   -1.7390    2.9814 H   0  0  0  0  0  0  0  0  0  0  0  0
    8.2074   -2.4357    3.7634 H   0  0  0  0  0  0  0  0  0  0  0  0
    6.5976   -3.4821    7.4502 H   0  0  0  0  0  0  0  0  0  0  0  0
   -0.2985   -1.3843    5.0336 H   0  0  0  0  0  0  0  0  0  0  0  0
    1.3706   -1.9545    5.2730 H   0  0  0  0  0  0  0  0  0  0  0  0
    2.1902    0.3809    5.1209 H   0  0  0  0  0  0  0  0  0  0  0  0
    0.5211    0.9511    4.8815 H   0  0  0  0  0  0  0  0  0  0  0  0
    2.3385    1.6825    7.1872 H   0  0  0  0  0  0  0  0  0  0  0  0
    0.6694    2.2527    6.9479 H   0  0  0  0  0  0  0  0  0  0  0  0
    8.3203   -0.0036   -0.2224 H   0  0  0  0  0  0  0  0  0  0  0  0
  1  2  1  0  0  0  0
  1 34  1  0  0  0  0
  1 35  1  0  0  0  0
  1 36  1  0  0  0  0
  2  3  1  0  0  0  0
  2 37  1  0  0  0  0
  2 38  1  0  0  0  0
  3 25  2  0  0  0  0
  3  4  1  0  0  0  0
  4  9  2  0  0  0  0
  4  5  1  0  0  0  0
  5  6  2  0  0  0  0
  5 24  1  0  0  0  0
  6  7  1  0  0  0  0
  6 17  1  0  0  0  0
  7  8  2  0  0  0  0
  8  9  1  0  0  0  0
  8 10  1  0  0  0  0
 10 16  1  0  0  0  0
 10 11  1  0  0  0  0
 11 12  1  0  0  0  0
 11 39  1  0  0  0  0
 11 40  1  0  0  0  0
 12 13  1  0  0  0  0
 12 41  1  0  0  0  0
 12 42  1  0  0  0  0
 13 14  1  0  0  0  0
 13 43  1  0  0  0  0
 13 44  1  0  0  0  0
 14 15  1  0  0  0  0
 14 45  1  0  0  0  0
 14 60  1  0  0  0  0
 15 16  1  0  0  0  0
 15 46  1  0  0  0  0
 15 47  1  0  0  0  0
 16 48  1  0  0  0  0
 16 49  1  0  0  0  0
 17 18  1  0  0  0  0
 17 50  1  0  0  0  0
 18 23  2  0  0  0  0
 18 19  1  0  0  0  0
 19 20  2  0  0  0  0
 19 51  1  0  0  0  0
 20 21  1  0  0  0  0
 20 52  1  0  0  0  0
 21 22  2  0  0  0  0
 22 23  1  0  0  0  0
 22 53  1  0  0  0  0
 24 25  1  0  0  0  0
 24 26  1  0  0  0  0
 26 27  1  0  0  0  0
 26 54  1  0  0  0  0
 26 55  1  0  0  0  0
 27 28  1  0  0  0  0
 27 56  1  0  0  0  0
 27 57  1  0  0  0  0
 28 29  1  0  0  0  0
 29 30  1  0  0  0  0
 29 58  1  0  0  0  0
 29 59  1  0  0  0  0
 30 31  1  0  0  0  0
 30 32  1  0  0  0  0
 30 33  1  0  0  0  0
M  CHG  1  14   1
M  END
$$$$
CHEMBL193995
  -OEChem-07121202283D

 57 62  0     0  0  0  0  0  0999 V2000
   -0.0184    1.5028    0.0103 C   0  0  0  0  0  0  0  0  0  0  0  0
    0.0021   -0.0041    0.0020 C   0  0  0  0  0  0  0  0  0  0  0  0
   -1.2118   -0.7183    0.0040 C   0  0  0  0  0  0  0  0  0  0  0  0
   -2.5168   -0.0582    0.0134 C   0  0  0  0  0  0  0  0  0  0  0  0
   -2.9380    1.2501    0.0219 C   0  0  0  0  0  0  0  0  0  0  0  0
   -4.3390    1.2424    0.0278 C   0  0  0  0  0  0  0  0  0  0  0  0
   -4.7543   -0.0112    0.0231 N   0  0  0  0  0  0  0  0  0  0  0  0
   -3.6395   -0.8571    0.0140 N   0  0  0  0  0  0  0  0  0  0  0  0
   -3.5024   -2.2151    0.0064 C   0  0  0  0  0  0  0  0  0  0  0  0
   -2.3459   -2.8078   -0.0011 N   0  0  0  0  0  0  0  0  0  0  0  0
   -1.1897   -2.1243   -0.0038 C   0  0  0  0  0  0  0  0  0  0  0  0
    0.1123   -2.7930   -0.0132 C   0  0  0  0  0  0  0  0  0  0  0  0
    0.1898   -4.0098   -0.0206 O   0  0  0  0  0  0  0  0  0  0  0  0
    1.2260   -2.0282   -0.0140 N   0  0  0  0  0  0  0  0  0  0  0  0
    1.1425   -0.6340   -0.0123 N   0  0  0  0  0  0  0  0  0  0  0  0
    2.5422   -2.6715   -0.0233 C   0  0  0  0  0  0  0  0  0  0  0  0
    2.9872   -2.8843   -1.4473 C   0  0  0  0  0  0  0  0  0  0  0  0
    2.6608   -4.0551   -2.1058 C   0  0  0  0  0  0  0  0  0  0  0  0
    3.0689   -4.2503   -3.4120 C   0  0  0  0  0  0  0  0  0  0  0  0
    3.8032   -3.2746   -4.0599 C   0  0  0  0  0  0  0  0  0  0  0  0
    4.1288   -2.1034   -3.4017 C   0  0  0  0  0  0  0  0  0  0  0  0
    3.7170   -1.9064   -2.0969 C   0  0  0  0  0  0  0  0  0  0  0  0
   -4.7471   -3.0647    0.0073 C   0  0  0  0  0  0  0  0  0  0  0  0
   -4.3610   -4.5214   -0.0018 C   0  0  0  0  0  0  0  0  0  0  0  0
   -4.1787   -5.1998   -1.1972 C   0  0  0  0  0  0  0  0  0  0  0  0
   -3.8248   -6.5354   -1.1664 C   0  0  0  0  0  0  0  0  0  0  0  0
   -3.6612   -7.1635   -0.0185 N   0  0  0  0  0  0  0  0  0  0  0  0
   -3.8262   -6.5503    1.1373 C   0  0  0  0  0  0  0  0  0  0  0  0
   -4.1741   -5.2136    1.1849 C   0  0  0  0  0  0  0  0  0  0  0  0
   -5.2112    2.4432    0.0385 C   0  0  0  0  0  0  0  0  0  0  0  0
   -4.6470    3.7171    0.0376 C   0  0  0  0  0  0  0  0  0  0  0  0
   -5.4628    4.8304    0.0476 C   0  0  0  0  0  0  0  0  0  0  0  0
   -6.8380    4.6831    0.0589 C   0  0  0  0  0  0  0  0  0  0  0  0
   -7.4035    3.4207    0.0602 C   0  0  0  0  0  0  0  0  0  0  0  0
   -6.5971    2.3006    0.0436 C   0  0  0  0  0  0  0  0  0  0  0  0
    1.0042    1.8801    0.0026 H   0  0  0  0  0  0  0  0  0  0  0  0
   -0.5455    1.8639   -0.8728 H   0  0  0  0  0  0  0  0  0  0  0  0
   -0.5286    1.8543    0.9071 H   0  0  0  0  0  0  0  0  0  0  0  0
   -2.3045    2.1247    0.0240 H   0  0  0  0  0  0  0  0  0  0  0  0
    3.2617   -2.0342    0.4908 H   0  0  0  0  0  0  0  0  0  0  0  0
    2.4801   -3.6334    0.4856 H   0  0  0  0  0  0  0  0  0  0  0  0
    2.0871   -4.8174   -1.5996 H   0  0  0  0  0  0  0  0  0  0  0  0
    2.8145   -5.1653   -3.9262 H   0  0  0  0  0  0  0  0  0  0  0  0
    4.1227   -3.4274   -5.0801 H   0  0  0  0  0  0  0  0  0  0  0  0
    4.7028   -1.3413   -3.9077 H   0  0  0  0  0  0  0  0  0  0  0  0
    3.9682   -0.9898   -1.5839 H   0  0  0  0  0  0  0  0  0  0  0  0
   -5.3330   -2.8498    0.9009 H   0  0  0  0  0  0  0  0  0  0  0  0
   -5.3406   -2.8406   -0.8790 H   0  0  0  0  0  0  0  0  0  0  0  0
   -4.3118   -4.6910   -2.1405 H   0  0  0  0  0  0  0  0  0  0  0  0
   -3.6809   -7.0710   -2.0931 H   0  0  0  0  0  0  0  0  0  0  0  0
   -3.6838   -7.0979    2.0572 H   0  0  0  0  0  0  0  0  0  0  0  0
   -4.3029   -4.7156    2.1345 H   0  0  0  0  0  0  0  0  0  0  0  0
   -3.5733    3.8332    0.0296 H   0  0  0  0  0  0  0  0  0  0  0  0
   -5.0265    5.8184    0.0470 H   0  0  0  0  0  0  0  0  0  0  0  0
   -7.4727    5.5569    0.0670 H   0  0  0  0  0  0  0  0  0  0  0  0
   -8.4779    3.3114    0.0697 H   0  0  0  0  0  0  0  0  0  0  0  0
   -7.0396    1.3155    0.0397 H   0  0  0  0  0  0  0  0  0  0  0  0
  1  2  1  0  0  0  0
  1 36  1  0  0  0  0
  1 37  1  0  0  0  0
  1 38  1  0  0  0  0
  2 15  2  0  0  0  0
  2  3  1  0  0  0  0
  3 11  2  0  0  0  0
  3  4  1  0  0  0  0
  4  8  1  0  0  0  0
  4  5  2  0  0  0  0
  5  6  1  0  0  0  0
  5 39  1  0  0  0  0
  6  7  2  0  0  0  0
  6 30  1  0  0  0  0
  7  8  1  0  0  0  0
  8  9  1  0  0  0  0
  9 10  2  0  0  0  0
  9 23  1  0  0  0  0
 10 11  1  0  0  0  0
 11 12  1  0  0  0  0
 12 13  2  0  0  0  0
 12 14  1  0  0  0  0
 14 15  1  0  0  0  0
 14 16  1  0  0  0  0
 16 17  1  0  0  0  0
 16 40  1  0  0  0  0
 16 41  1  0  0  0  0
 17 22  2  0  0  0  0
 17 18  1  0  0  0  0
 18 19  2  0  0  0  0
 18 42  1  0  0  0  0
 19 20  1  0  0  0  0
 19 43  1  0  0  0  0
 20 21  2  0  0  0  0
 20 44  1  0  0  0  0
 21 22  1  0  0  0  0
 21 45  1  0  0  0  0
 22 46  1  0  0  0  0
 23 24  1  0  0  0  0
 23 47  1  0  0  0  0
 23 48  1  0  0  0  0
 24 29  2  0  0  0  0
 24 25  1  0  0  0  0
 25 26  2  0  0  0  0
 25 49  1  0  0  0  0
 26 27  1  0  0  0  0
 26 50  1  0  0  0  0
 27 28  2  0  0  0  0
 28 29  1  0  0  0  0
 28 51  1  0  0  0  0
 29 52  1  0  0  0  0
 30 35  2  0  0  0  0
 30 31  1  0  0  0  0
 31 32  2  0  0  0  0
 31 53  1  0  0  0  0
 32 33  1  0  0  0  0
 32 54  1  0  0  0  0
 33 34  2  0  0  0  0
 33 55  1  0  0  0  0
 34 35  1  0  0  0  0
 34 56  1  0  0  0  0
 35 57  1  0  0  0  0
M  END
$$$$
CHEMBL372427
  -OEChem-07121202283D

 49 52  0     1  0  0  0  0  0999 V2000
   -0.0187    1.5258    0.0104 C   0  0  0  0  0  0  0  0  0  0  0  0
    0.0021   -0.0041    0.0020 C   0  0  0  0  0  0  0  0  0  0  0  0
   -1.3723   -0.5112    0.0124 N   0  0  0  0  0  0  0  0  0  0  0  0
   -1.9815   -0.7404    1.1899 C   0  0  0  0  0  0  0  0  0  0  0  0
   -1.3985   -0.5293    2.2375 O   0  0  0  0  0  0  0  0  0  0  0  0
   -3.3542   -1.2463    1.1940 C   0  0  0  0  0  0  0  0  0  0  0  0
   -3.9802   -1.4721   -0.0231 C   0  0  0  0  0  0  0  0  0  0  0  0
   -5.2269   -1.9332    0.2656 N   0  0  0  0  0  0  0  0  0  0  0  0
   -5.3435   -1.9820    1.6245 C   0  0  0  0  0  0  0  0  0  0  0  0
   -4.2347   -1.5752    2.1711 N   0  0  0  0  0  0  0  0  0  0  0  0
   -5.9091   -2.1822   -0.3775 H   0  0  0  0  0  0  0  0  0  0  0  0
   -6.5678   -2.4367    2.3763 C   0  0  0  0  0  0  0  0  0  0  0  0
   -6.1907   -3.5422    3.3286 C   0  0  0  0  0  0  0  0  0  0  0  0
   -6.2348   -4.8592    2.9111 C   0  0  0  0  0  0  0  0  0  0  0  0
   -5.8889   -5.8732    3.7846 C   0  0  0  0  0  0  0  0  0  0  0  0
   -5.4983   -5.5701    5.0755 C   0  0  0  0  0  0  0  0  0  0  0  0
   -5.4533   -4.2530    5.4928 C   0  0  0  0  0  0  0  0  0  0  0  0
   -5.7951   -3.2387    4.6180 C   0  0  0  0  0  0  0  0  0  0  0  0
   -3.3063   -1.2186   -1.1988 N   0  0  0  0  0  0  0  0  0  0  0  0
   -2.0214   -0.7399   -1.1918 C   0  0  0  0  0  0  0  0  0  0  0  0
   -1.5384   -0.5520   -2.3908 N   0  3  0  0  0  0  0  0  0  0  0  0
   -2.5289   -0.9084   -3.4102 C   0  0  1  0  0  0  0  0  0  0  0  0
   -2.1590   -1.7219   -4.0343 H   0  0  0  0  0  0  0  0  0  0  0  0
   -3.7489   -1.3765   -2.5962 C   0  0  0  0  0  0  0  0  0  0  0  0
   -2.8769    0.3091   -4.2689 C   0  0  0  0  0  0  0  0  0  0  0  0
   -1.6203    0.8002   -4.9905 C   0  0  0  0  0  0  0  0  0  0  0  0
   -3.9378   -0.0806   -5.3001 C   0  0  0  0  0  0  0  0  0  0  0  0
    1.0039    1.9031    0.0027 H   0  0  0  0  0  0  0  0  0  0  0  0
   -0.5459    1.8868   -0.8726 H   0  0  0  0  0  0  0  0  0  0  0  0
   -0.5289    1.8773    0.9072 H   0  0  0  0  0  0  0  0  0  0  0  0
    0.5123   -0.3556   -0.8948 H   0  0  0  0  0  0  0  0  0  0  0  0
    0.5293   -0.3651    0.8851 H   0  0  0  0  0  0  0  0  0  0  0  0
   -6.9815   -1.5990    2.9376 H   0  0  0  0  0  0  0  0  0  0  0  0
   -7.3124   -2.8039    1.6700 H   0  0  0  0  0  0  0  0  0  0  0  0
   -6.5399   -5.0960    1.9025 H   0  0  0  0  0  0  0  0  0  0  0  0
   -5.9240   -6.9022    3.4586 H   0  0  0  0  0  0  0  0  0  0  0  0
   -5.2288   -6.3623    5.7582 H   0  0  0  0  0  0  0  0  0  0  0  0
   -5.1486   -4.0162    6.5015 H   0  0  0  0  0  0  0  0  0  0  0  0
   -5.7564   -2.2095    4.9428 H   0  0  0  0  0  0  0  0  0  0  0  0
   -3.9861   -2.4190   -2.8087 H   0  0  0  0  0  0  0  0  0  0  0  0
   -4.6067   -0.7364   -2.8023 H   0  0  0  0  0  0  0  0  0  0  0  0
   -3.2642    1.1042   -3.6318 H   0  0  0  0  0  0  0  0  0  0  0  0
   -1.2330    0.0050   -5.6275 H   0  0  0  0  0  0  0  0  0  0  0  0
   -1.8683    1.6676   -5.6023 H   0  0  0  0  0  0  0  0  0  0  0  0
   -0.8645    1.0778   -4.2558 H   0  0  0  0  0  0  0  0  0  0  0  0
   -4.8330   -0.4305   -4.7860 H   0  0  0  0  0  0  0  0  0  0  0  0
   -4.1857    0.7868   -5.9119 H   0  0  0  0  0  0  0  0  0  0  0  0
   -3.5505   -0.8758   -5.9372 H   0  0  0  0  0  0  0  0  0  0  0  0
   -0.6465   -0.2212   -2.5804 H   0  0  0  0  0  0  0  0  0  0  0  0
  1  2  1  0  0  0  0
  1 28  1  0  0  0  0
  1 29  1  0  0  0  0
  1 30  1  0  0  0  0
  2  3  1  0  0  0  0
  2 31  1  0  0  0  0
  2 32  1  0  0  0  0
  3 20  1  0  0  0  0
  3  4  1  0  0  0  0
  4  5  2  0  0  0  0
  4  6  1  0  0  0  0
  6 10  1  0  0  0  0
  6  7  2  0  0  0  0
  7 19  1  0  0  0  0
  7  8  1  0  0  0  0
  8  9  1  0  0  0  0
  8 11  1  0  0  0  0
  9 12  1  0  0  0  0
  9 10  2  0  0  0  0
 12 13  1  0  0  0  0
 12 33  1  0  0  0  0
 12 34  1  0  0  0  0
 13 18  2  0  0  0  0
 13 14  1  0  0  0  0
 14 15  2  0  0  0  0
 14 35  1  0  0  0  0
 15 16  1  0  0  0  0
 15 36  1  0  0  0  0
 16 17  2  0  0  0  0
 16 37  1  0  0  0  0
 17 18  1  0  0  0  0
 17 38  1  0  0  0  0
 18 39  1  0  0  0  0
 19 24  1  0  0  0  0
 19 20  1  0  0  0  0
 20 21  2  0  0  0  0
 21 22  1  0  0  0  0
 21 49  1  0  0  0  0
 22 23  1  0  0  0  0
 22 24  1  0  0  0  0
 22 25  1  0  0  0  0
 24 40  1  0  0  0  0
 24 41  1  0  0  0  0
 25 26  1  0  0  0  0
 25 27  1  0  0  0  0
 25 42  1  0  0  0  0
 26 43  1  0  0  0  0
 26 44  1  0  0  0  0
 26 45  1  0  0  0  0
 27 46  1  0  0  0  0
 27 47  1  0  0  0  0
 27 48  1  0  0  0  0
M  CHG  1  21   1
M  END
$$$$
CHEMBL372427
  -OEChem-07121202283D

 49 52  0     1  0  0  0  0  0999 V2000
   -0.0187    1.5258    0.0104 C   0  0  0  0  0  0  0  0  0  0  0  0
    0.0021   -0.0041    0.0020 C   0  0  0  0  0  0  0  0  0  0  0  0
    0.7106   -0.4894    1.1889 N   0  0  0  0  0  0  0  0  0  0  0  0
    2.0396   -0.6858    1.1297 C   0  0  0  0  0  0  0  0  0  0  0  0
    2.6441   -0.4605    0.0966 O   0  0  0  0  0  0  0  0  0  0  0  0
    2.7324   -1.1529    2.2663 C   0  0  0  0  0  0  0  0  0  0  0  0
    2.0298   -1.4045    3.4356 C   0  0  0  0  0  0  0  0  0  0  0  0
    2.9122   -1.8310    4.3443 N   0  0  0  0  0  0  0  0  0  0  0  0
    4.1102   -1.8607    3.8189 C   0  0  0  0  0  0  0  0  0  0  0  0
    4.0542   -1.4512    2.5369 N   0  0  0  0  0  0  0  0  0  0  0  0
    4.7999   -1.3796    1.9207 H   0  0  0  0  0  0  0  0  0  0  0  0
    5.3630   -2.2883    4.5392 C   0  0  0  0  0  0  0  0  0  0  0  0
    5.5223   -1.4735    5.7969 C   0  0  0  0  0  0  0  0  0  0  0  0
    6.2193   -0.2802    5.7637 C   0  0  0  0  0  0  0  0  0  0  0  0
    6.3655    0.4672    6.9174 C   0  0  0  0  0  0  0  0  0  0  0  0
    5.8142    0.0215    8.1041 C   0  0  0  0  0  0  0  0  0  0  0  0
    5.1164   -1.1714    8.1371 C   0  0  0  0  0  0  0  0  0  0  0  0
    4.9666   -1.9166    6.9825 C   0  0  0  0  0  0  0  0  0  0  0  0
    0.6593   -1.1924    3.4649 N   0  0  0  0  0  0  0  0  0  0  0  0
   -0.0008   -0.7323    2.3542 C   0  0  0  0  0  0  0  0  0  0  0  0
   -1.2825   -0.5798    2.5473 N   0  3  0  0  0  0  0  0  0  0  0  0
   -1.6464   -0.9449    3.9194 C   0  0  1  0  0  0  0  0  0  0  0  0
   -2.3489   -1.7783    3.9196 H   0  0  0  0  0  0  0  0  0  0  0  0
   -0.3124   -1.3770    4.5561 C   0  0  0  0  0  0  0  0  0  0  0  0
   -2.2425    0.2575    4.6542 C   0  0  0  0  0  0  0  0  0  0  0  0
   -3.5162    0.7122    3.9388 C   0  0  0  0  0  0  0  0  0  0  0  0
   -2.5798   -0.1399    6.0927 C   0  0  0  0  0  0  0  0  0  0  0  0
    1.0039    1.9031    0.0027 H   0  0  0  0  0  0  0  0  0  0  0  0
   -0.5459    1.8868   -0.8726 H   0  0  0  0  0  0  0  0  0  0  0  0
   -0.5289    1.8773    0.9072 H   0  0  0  0  0  0  0  0  0  0  0  0
   -1.0205   -0.3814    0.0098 H   0  0  0  0  0  0  0  0  0  0  0  0
    0.5123   -0.3556   -0.8948 H   0  0  0  0  0  0  0  0  0  0  0  0
    5.2910   -3.3448    4.7974 H   0  0  0  0  0  0  0  0  0  0  0  0
    6.2259   -2.1303    3.8922 H   0  0  0  0  0  0  0  0  0  0  0  0
    6.6500    0.0680    4.8365 H   0  0  0  0  0  0  0  0  0  0  0  0
    6.9106    1.3991    6.8916 H   0  0  0  0  0  0  0  0  0  0  0  0
    5.9289    0.6051    9.0056 H   0  0  0  0  0  0  0  0  0  0  0  0
    4.6860   -1.5197    9.0643 H   0  0  0  0  0  0  0  0  0  0  0  0
    4.4183   -2.8467    7.0075 H   0  0  0  0  0  0  0  0  0  0  0  0
   -0.3446   -2.4204    4.8698 H   0  0  0  0  0  0  0  0  0  0  0  0
   -0.0723   -0.7284    5.3985 H   0  0  0  0  0  0  0  0  0  0  0  0
   -1.5196    1.0732    4.6626 H   0  0  0  0  0  0  0  0  0  0  0  0
   -4.2392   -0.1035    3.9304 H   0  0  0  0  0  0  0  0  0  0  0  0
   -3.9409    1.5688    4.4623 H   0  0  0  0  0  0  0  0  0  0  0  0
   -3.2759    0.9953    2.9140 H   0  0  0  0  0  0  0  0  0  0  0  0
   -3.3028   -0.9555    6.0844 H   0  0  0  0  0  0  0  0  0  0  0  0
   -1.6724   -0.4638    6.6024 H   0  0  0  0  0  0  0  0  0  0  0  0
   -3.0045    0.7167    6.6162 H   0  0  0  0  0  0  0  0  0  0  0  0
   -1.9082   -0.2675    1.8751 H   0  0  0  0  0  0  0  0  0  0  0  0
  1  2  1  0  0  0  0
  1 28  1  0  0  0  0
  1 29  1  0  0  0  0
  1 30  1  0  0  0  0
  2  3  1  0  0  0  0
  2 31  1  0  0  0  0
  2 32  1  0  0  0  0
  3 20  1  0  0  0  0
  3  4  1  0  0  0  0
  4  5  2  0  0  0  0
  4  6  1  0  0  0  0
  6 10  1  0  0  0  0
  6  7  2  0  0  0  0
  7  8  1  0  0  0  0
  7 19  1  0  0  0  0
  8  9  2  0  0  0  0
  9 10  1  0  0  0  0
  9 12  1  0  0  0  0
 10 11  1  0  0  0  0
 12 13  1  0  0  0  0
 12 33  1  0  0  0  0
 12 34  1  0  0  0  0
 13 18  2  0  0  0  0
 13 14  1  0  0  0  0
 14 15  2  0  0  0  0
 14 35  1  0  0  0  0
 15 16  1  0  0  0  0
 15 36  1  0  0  0  0
 16 17  2  0  0  0  0
 16 37  1  0  0  0  0
 17 18  1  0  0  0  0
 17 38  1  0  0  0  0
 18 39  1  0  0  0  0
 19 24  1  0  0  0  0
 19 20  1  0  0  0  0
 20 21  2  0  0  0  0
 21 22  1  0  0  0  0
 21 49  1  0  0  0  0
 22 23  1  0  0  0  0
 22 24  1  0  0  0  0
 22 25  1  0  0  0  0
 24 40  1  0  0  0  0
 24 41  1  0  0  0  0
 25 26  1  0  0  0  0
 25 27  1  0  0  0  0
 25 42  1  0  0  0  0
 26 43  1  0  0  0  0
 26 44  1  0  0  0  0
 26 45  1  0  0  0  0
 27 46  1  0  0  0  0
 27 47  1  0  0  0  0
 27 48  1  0  0  0  0
M  CHG  1  21   1
M  END
$$$$
CHEMBL34169
  -OEChem-07121202283D

 68 74  0     1  0  0  0  0  0999 V2000
   -0.2182    0.4064   -0.5998 C   0  0  0  0  0  0  0  0  0  0  0  0
    0.9156    1.1971   -0.6026 C   0  0  0  0  0  0  0  0  0  0  0  0
    2.1666    0.6119   -0.5441 C   0  0  0  0  0  0  0  0  0  0  0  0
    2.2837   -0.7641   -0.4823 C   0  0  0  0  0  0  0  0  0  0  0  0
    1.1499   -1.5548   -0.4785 C   0  0  0  0  0  0  0  0  0  0  0  0
   -0.1011   -0.9696   -0.5385 C   0  0  0  0  0  0  0  0  0  0  0  0
    3.6475   -1.4022   -0.4195 C   0  0  0  0  0  0  0  0  0  0  0  0
    4.0546   -1.5505    0.9841 N   0  3  2  0  0  0  0  0  0  0  0  0
    4.2415   -0.2156    1.5916 C   0  0  0  0  0  0  0  0  0  0  0  0
    5.4403   -0.3851    2.5579 C   0  0  0  0  0  0  0  0  0  0  0  0
    6.3483   -1.3600    1.7629 C   0  0  2  0  0  0  0  0  0  0  0  0
    6.9501   -0.8180    1.0335 H   0  0  0  0  0  0  0  0  0  0  0  0
    5.3329   -2.2819    1.0554 C   0  0  0  0  0  0  0  0  0  0  0  0
    7.2047   -2.1271    2.6709 N   0  0  0  0  0  0  0  0  0  0  0  0
    6.5651   -2.9475    3.6860 C   0  0  0  0  0  0  0  0  0  0  0  0
    7.5577   -3.7258    4.4868 C   0  0  0  0  0  0  0  0  0  0  0  0
    7.1332   -4.4650    5.3496 O   0  0  0  0  0  0  0  0  0  0  0  0
    8.8799   -3.6628    4.3164 N   0  0  0  0  0  0  0  0  0  0  0  0
    9.5207   -2.7519    3.3689 C   0  0  1  0  0  0  0  0  0  0  0  0
   10.1743   -3.3281    2.7140 H   0  0  0  0  0  0  0  0  0  0  0  0
    8.5241   -2.0367    2.5151 C   0  0  0  0  0  0  0  0  0  0  0  0
    8.9437   -1.3256    1.6267 O   0  0  0  0  0  0  0  0  0  0  0  0
   10.3691   -1.7336    4.1436 C   0  0  0  0  0  0  0  0  0  0  0  0
   11.1712   -2.4654    5.1891 C   0  0  0  0  0  0  0  0  0  0  0  0
   12.3436   -2.0066    5.9062 C   0  0  0  0  0  0  0  0  0  0  0  0
   13.0719   -0.8137    5.8673 C   0  0  0  0  0  0  0  0  0  0  0  0
   14.1560   -0.7211    6.7049 C   0  0  0  0  0  0  0  0  0  0  0  0
   14.5211   -1.7540    7.5528 C   0  0  0  0  0  0  0  0  0  0  0  0
   13.8176   -2.9445    7.6126 C   0  0  0  0  0  0  0  0  0  0  0  0
   12.7117   -3.0667    6.7738 C   0  0  0  0  0  0  0  0  0  0  0  0
   11.8162   -4.0791    6.5812 N   0  0  0  0  0  0  0  0  0  0  0  0
   11.8266   -4.9295    7.0476 H   0  0  0  0  0  0  0  0  0  0  0  0
   10.9008   -3.7129    5.6305 C   0  0  0  0  0  0  0  0  0  0  0  0
    9.7499   -4.5490    5.1186 C   0  0  1  0  0  0  0  0  0  0  0  0
   10.1291   -5.3587    4.4953 H   0  0  0  0  0  0  0  0  0  0  0  0
    8.9729   -5.1154    6.2789 C   0  0  0  0  0  0  0  0  0  0  0  0
    8.4973   -4.2649    7.2868 C   0  0  0  0  0  0  0  0  0  0  0  0
    7.7953   -4.7941    8.3297 C   0  0  0  0  0  0  0  0  0  0  0  0
    7.5645   -6.1797    8.3708 C   0  0  0  0  0  0  0  0  0  0  0  0
    8.0343   -6.9706    7.3874 N   0  0  0  0  0  0  0  0  0  0  0  0
    8.7287   -6.4450    6.3460 C   0  0  0  0  0  0  0  0  0  0  0  0
    6.9381   -6.6666    9.2985 O   0  0  0  0  0  0  0  0  0  0  0  0
   -1.1957    0.8638   -0.6409 H   0  0  0  0  0  0  0  0  0  0  0  0
    0.8241    2.2722   -0.6509 H   0  0  0  0  0  0  0  0  0  0  0  0
    3.0525    1.2296   -0.5471 H   0  0  0  0  0  0  0  0  0  0  0  0
    1.2414   -2.6299   -0.4306 H   0  0  0  0  0  0  0  0  0  0  0  0
   -0.9869   -1.5874   -0.5359 H   0  0  0  0  0  0  0  0  0  0  0  0
    3.6118   -2.3833   -0.8931 H   0  0  0  0  0  0  0  0  0  0  0  0
    4.3676   -0.7726   -0.9421 H   0  0  0  0  0  0  0  0  0  0  0  0
    4.4747    0.5216    0.8234 H   0  0  0  0  0  0  0  0  0  0  0  0
    3.3485    0.0788    2.1428 H   0  0  0  0  0  0  0  0  0  0  0  0
    5.9434    0.5670    2.7268 H   0  0  0  0  0  0  0  0  0  0  0  0
    5.1219   -0.8293    3.5010 H   0  0  0  0  0  0  0  0  0  0  0  0
    5.2034   -3.1999    1.6286 H   0  0  0  0  0  0  0  0  0  0  0  0
    5.6826   -2.5162    0.0500 H   0  0  0  0  0  0  0  0  0  0  0  0
    5.9970   -2.3025    4.3563 H   0  0  0  0  0  0  0  0  0  0  0  0
    5.8797   -3.6418    3.2000 H   0  0  0  0  0  0  0  0  0  0  0  0
   11.0439   -1.2225    3.4569 H   0  0  0  0  0  0  0  0  0  0  0  0
    9.7164   -1.0065    4.6266 H   0  0  0  0  0  0  0  0  0  0  0  0
   12.7951   -0.0033    5.2092 H   0  0  0  0  0  0  0  0  0  0  0  0
   14.7428    0.1856    6.7024 H   0  0  0  0  0  0  0  0  0  0  0  0
   15.3846   -1.6261    8.1887 H   0  0  0  0  0  0  0  0  0  0  0  0
   14.1121   -3.7418    8.2789 H   0  0  0  0  0  0  0  0  0  0  0  0
    8.6850   -3.2024    7.2382 H   0  0  0  0  0  0  0  0  0  0  0  0
    7.4212   -4.1550    9.1159 H   0  0  0  0  0  0  0  0  0  0  0  0
    9.0938   -7.0953    5.5648 H   0  0  0  0  0  0  0  0  0  0  0  0
    7.8718   -7.9263    7.4218 H   0  0  0  0  0  0  0  0  0  0  0  0
    3.3451   -2.0565    1.4926 H   0  0  0  0  0  0  0  0  0  0  0  0
  1  6  2  0  0  0  0
  1  2  1  0  0  0  0
  1 43  1  0  0  0  0
  2  3  2  0  0  0  0
  2 44  1  0  0  0  0
  3  4  1  0  0  0  0
  3 45  1  0  0  0  0
  4  5  2  0  0  0  0
  4  7  1  0  0  0  0
  5  6  1  0  0  0  0
  5 46  1  0  0  0  0
  6 47  1  0  0  0  0
  7  8  1  0  0  0  0
  7 48  1  0  0  0  0
  7 49  1  0  0  0  0
  8 13  1  0  0  0  0
  8  9  1  0  0  0  0
  8 68  1  0  0  0  0
  9 10  1  0  0  0  0
  9 50  1  0  0  0  0
  9 51  1  0  0  0  0
 10 11  1  0  0  0  0
 10 52  1  0  0  0  0
 10 53  1  0  0  0  0
 11 12  1  0  0  0  0
 11 13  1  0  0  0  0
 11 14  1  0  0  0  0
 13 54  1  0  0  0  0
 13 55  1  0  0  0  0
 14 21  1  0  0  0  0
 14 15  1  0  0  0  0
 15 16  1  0  0  0  0
 15 56  1  0  0  0  0
 15 57  1  0  0  0  0
 16 17  2  0  0  0  0
 16 18  1  0  0  0  0
 18 34  1  0  0  0  0
 18 19  1  0  0  0  0
 19 20  1  0  0  0  0
 19 21  1  0  0  0  0
 19 23  1  0  0  0  0
 21 22  2  0  0  0  0
 23 24  1  0  0  0  0
 23 58  1  0  0  0  0
 23 59  1  0  0  0  0
 24 33  2  0  0  0  0
 24 25  1  0  0  0  0
 25 30  2  0  0  0  0
 25 26  1  0  0  0  0
 26 27  2  0  0  0  0
 26 60  1  0  0  0  0
 27 28  1  0  0  0  0
 27 61  1  0  0  0  0
 28 29  2  0  0  0  0
 28 62  1  0  0  0  0
 29 30  1  0  0  0  0
 29 63  1  0  0  0  0
 30 31  1  0  0  0  0
 31 32  1  0  0  0  0
 31 33  1  0  0  0  0
 33 34  1  0  0  0  0
 34 35  1  0  0  0  0
 34 36  1  0  0  0  0
 36 41  2  0  0  0  0
 36 37  1  0  0  0  0
 37 64  1  0  0  0  0
 37 38  2  0  0  0  0
 38 39  1  0  0  0  0
 38 65  1  0  0  0  0
 39 42  2  0  0  0  0
 39 40  1  0  0  0  0
 40 67  1  0  0  0  0
 40 41  1  0  0  0  0
 41 66  1  0  0  0  0
M  CHG  1   8   1
M  END
$$$$
CHEMBL34169
  -OEChem-07121202283D

 67 73  0     1  0  0  0  0  0999 V2000
   -0.2592    0.4126   -0.5915 C   0  0  0  0  0  0  0  0  0  0  0  0
    0.8758    1.2016   -0.6030 C   0  0  0  0  0  0  0  0  0  0  0  0
    2.1261    0.6148   -0.5470 C   0  0  0  0  0  0  0  0  0  0  0  0
    2.2414   -0.7611   -0.4789 C   0  0  0  0  0  0  0  0  0  0  0  0
    1.1064   -1.5500   -0.4665 C   0  0  0  0  0  0  0  0  0  0  0  0
   -0.1439   -0.9632   -0.5239 C   0  0  0  0  0  0  0  0  0  0  0  0
    3.6045   -1.4009   -0.4188 C   0  0  0  0  0  0  0  0  0  0  0  0
    4.0174   -1.5430    0.9838 N   0  0  2  0  0  0  0  0  0  0  0  0
    4.2933   -0.2235    1.5911 C   0  0  0  0  0  0  0  0  0  0  0  0
    5.4457   -0.4826    2.5934 C   0  0  0  0  0  0  0  0  0  0  0  0
    6.2950   -1.5325    1.8298 C   0  0  2  0  0  0  0  0  0  0  0  0
    6.9598   -1.0453    1.1164 H   0  0  0  0  0  0  0  0  0  0  0  0
    5.2299   -2.3743    1.0961 C   0  0  0  0  0  0  0  0  0  0  0  0
    7.0599   -2.3600    2.7659 N   0  0  0  0  0  0  0  0  0  0  0  0
    6.3268   -3.1197    3.7649 C   0  0  0  0  0  0  0  0  0  0  0  0
    7.2295   -3.9701    4.5981 C   0  0  0  0  0  0  0  0  0  0  0  0
    6.7217   -4.6671    5.4509 O   0  0  0  0  0  0  0  0  0  0  0  0
    8.5569   -4.0147    4.4669 N   0  0  0  0  0  0  0  0  0  0  0  0
    9.2965   -3.1645    3.5352 C   0  0  1  0  0  0  0  0  0  0  0  0
    9.9206   -3.7956    2.9024 H   0  0  0  0  0  0  0  0  0  0  0  0
    8.3862   -2.3770    2.6491 C   0  0  0  0  0  0  0  0  0  0  0  0
    8.8876   -1.7078    1.7707 O   0  0  0  0  0  0  0  0  0  0  0  0
   10.2011   -2.2127    4.3306 C   0  0  0  0  0  0  0  0  0  0  0  0
   10.9107   -2.9998    5.4025 C   0  0  0  0  0  0  0  0  0  0  0  0
   12.0946   -2.6321    6.1522 C   0  0  0  0  0  0  0  0  0  0  0  0
   12.9176   -1.5018    6.1301 C   0  0  0  0  0  0  0  0  0  0  0  0
   13.9805   -1.4913    6.9993 C   0  0  0  0  0  0  0  0  0  0  0  0
   14.2362   -2.5447    7.8619 C   0  0  0  0  0  0  0  0  0  0  0  0
   13.4376   -3.6743    7.9056 C   0  0  0  0  0  0  0  0  0  0  0  0
   12.3505   -3.7127    7.0348 C   0  0  0  0  0  0  0  0  0  0  0  0
   11.3825   -4.6510    6.8198 N   0  0  0  0  0  0  0  0  0  0  0  0
   11.3106   -5.4965    7.2898 H   0  0  0  0  0  0  0  0  0  0  0  0
   10.5277   -4.2186    5.8408 C   0  0  0  0  0  0  0  0  0  0  0  0
    9.3288   -4.9627    5.2983 C   0  0  1  0  0  0  0  0  0  0  0  0
    9.6596   -5.8044    4.6899 H   0  0  0  0  0  0  0  0  0  0  0  0
    8.4749   -5.4573    6.4373 C   0  0  0  0  0  0  0  0  0  0  0  0
    8.0401   -4.5647    7.4271 C   0  0  0  0  0  0  0  0  0  0  0  0
    7.2675   -5.0290    8.4508 C   0  0  0  0  0  0  0  0  0  0  0  0
    6.9246   -6.3913    8.4907 C   0  0  0  0  0  0  0  0  0  0  0  0
    7.3578   -7.2238    7.5250 N   0  0  0  0  0  0  0  0  0  0  0  0
    8.1226   -6.7625    6.5025 C   0  0  0  0  0  0  0  0  0  0  0  0
    6.2342   -6.8201    9.4014 O   0  0  0  0  0  0  0  0  0  0  0  0
   -1.2362    0.8714   -0.6307 H   0  0  0  0  0  0  0  0  0  0  0  0
    0.7857    2.2766   -0.6562 H   0  0  0  0  0  0  0  0  0  0  0  0
    3.0129    1.2311   -0.5567 H   0  0  0  0  0  0  0  0  0  0  0  0
    1.1965   -2.6250   -0.4137 H   0  0  0  0  0  0  0  0  0  0  0  0
   -1.0307   -1.5796   -0.5146 H   0  0  0  0  0  0  0  0  0  0  0  0
    3.5652   -2.3843   -0.8874 H   0  0  0  0  0  0  0  0  0  0  0  0
    4.3233   -0.7750   -0.9475 H   0  0  0  0  0  0  0  0  0  0  0  0
    4.6075    0.4876    0.8271 H   0  0  0  0  0  0  0  0  0  0  0  0
    3.4111    0.1454    2.1143 H   0  0  0  0  0  0  0  0  0  0  0  0
    6.0186    0.4271    2.7732 H   0  0  0  0  0  0  0  0  0  0  0  0
    5.0649   -0.8936    3.5283 H   0  0  0  0  0  0  0  0  0  0  0  0
    5.0101   -3.2752    1.6690 H   0  0  0  0  0  0  0  0  0  0  0  0
    5.5890   -2.6425    0.1025 H   0  0  0  0  0  0  0  0  0  0  0  0
    5.7931   -2.4267    4.4154 H   0  0  0  0  0  0  0  0  0  0  0  0
    5.6022   -3.7598    3.2616 H   0  0  0  0  0  0  0  0  0  0  0  0
   10.9347   -1.7620    3.6622 H   0  0  0  0  0  0  0  0  0  0  0  0
    9.5952   -1.4322    4.7909 H   0  0  0  0  0  0  0  0  0  0  0  0
   12.7263   -0.6762    5.4607 H   0  0  0  0  0  0  0  0  0  0  0  0
   14.6383   -0.6348    7.0105 H   0  0  0  0  0  0  0  0  0  0  0  0
   15.0882   -2.4825    8.5227 H   0  0  0  0  0  0  0  0  0  0  0  0
   13.6473   -4.4883    8.5837 H   0  0  0  0  0  0  0  0  0  0  0  0
    8.3141   -3.5211    7.3797 H   0  0  0  0  0  0  0  0  0  0  0  0
    6.9231   -4.3568    9.2228 H   0  0  0  0  0  0  0  0  0  0  0  0
    8.4569   -7.4451    5.7353 H   0  0  0  0  0  0  0  0  0  0  0  0
    7.1179   -8.1630    7.5585 H   0  0  0  0  0  0  0  0  0  0  0  0
  1  6  2  0  0  0  0
  1  2  1  0  0  0  0
  1 43  1  0  0  0  0
  2  3  2  0  0  0  0
  2 44  1  0  0  0  0
  3  4  1  0  0  0  0
  3 45  1  0  0  0  0
  4  5  2  0  0  0  0
  4  7  1  0  0  0  0
  5  6  1  0  0  0  0
  5 46  1  0  0  0  0
  6 47  1  0  0  0  0
  7  8  1  0  0  0  0
  7 48  1  0  0  0  0
  7 49  1  0  0  0  0
  8 13  1  0  0  0  0
  8  9  1  0  0  0  0
  9 10  1  0  0  0  0
  9 50  1  0  0  0  0
  9 51  1  0  0  0  0
 10 11  1  0  0  0  0
 10 52  1  0  0  0  0
 10 53  1  0  0  0  0
 11 12  1  0  0  0  0
 11 13  1  0  0  0  0
 11 14  1  0  0  0  0
 13 54  1  0  0  0  0
 13 55  1  0  0  0  0
 14 21  1  0  0  0  0
 14 15  1  0  0  0  0
 15 16  1  0  0  0  0
 15 56  1  0  0  0  0
 15 57  1  0  0  0  0
 16 17  2  0  0  0  0
 16 18  1  0  0  0  0
 18 34  1  0  0  0  0
 18 19  1  0  0  0  0
 19 20  1  0  0  0  0
 19 21  1  0  0  0  0
 19 23  1  0  0  0  0
 21 22  2  0  0  0  0
 23 24  1  0  0  0  0
 23 58  1  0  0  0  0
 23 59  1  0  0  0  0
 24 33  2  0  0  0  0
 24 25  1  0  0  0  0
 25 30  2  0  0  0  0
 25 26  1  0  0  0  0
 26 27  2  0  0  0  0
 26 60  1  0  0  0  0
 27 28  1  0  0  0  0
 27 61  1  0  0  0  0
 28 29  2  0  0  0  0
 28 62  1  0  0  0  0
 29 30  1  0  0  0  0
 29 63  1  0  0  0  0
 30 31  1  0  0  0  0
 31 32  1  0  0  0  0
 31 33  1  0  0  0  0
 33 34  1  0  0  0  0
 34 35  1  0  0  0  0
 34 36  1  0  0  0  0
 36 41  2  0  0  0  0
 36 37  1  0  0  0  0
 37 64  1  0  0  0  0
 37 38  2  0  0  0  0
 38 39  1  0  0  0  0
 38 65  1  0  0  0  0
 39 42  2  0  0  0  0
 39 40  1  0  0  0  0
 40 67  1  0  0  0  0
 40 41  1  0  0  0  0
 41 66  1  0  0  0  0
M  END
$$$$
CHEMBL22906
  -OEChem-07121202283D

 60 64  0     0  0  0  0  0  0999 V2000
   -0.0187    1.5258    0.0104 C   0  0  0  0  0  0  0  0  0  0  0  0
    0.0021   -0.0041    0.0020 C   0  0  0  0  0  0  0  0  0  0  0  0
   -1.4333   -0.5336    0.0129 C   0  0  0  0  0  0  0  0  0  0  0  0
   -1.4139   -1.9625    0.0050 O   0  0  0  0  0  0  0  0  0  0  0  0
   -2.6147   -2.5951    0.0131 C   0  0  0  0  0  0  0  0  0  0  0  0
   -3.7894   -1.8588    0.0225 C   0  0  0  0  0  0  0  0  0  0  0  0
   -5.0107   -2.5038    0.0302 C   0  0  0  0  0  0  0  0  0  0  0  0
   -5.0722   -3.8874    0.0291 C   0  0  0  0  0  0  0  0  0  0  0  0
   -3.9138   -4.6347    0.0203 C   0  0  0  0  0  0  0  0  0  0  0  0
   -2.6726   -3.9949    0.0061 C   0  0  0  0  0  0  0  0  0  0  0  0
   -1.4285   -4.7890   -0.0095 C   0  0  0  0  0  0  0  0  0  0  0  0
   -0.2843   -4.1552   -0.0112 N   0  0  0  0  0  0  0  0  0  0  0  0
    0.8969   -4.8215   -0.0252 C   0  0  0  0  0  0  0  0  0  0  0  0
    2.1084   -4.1388   -0.0265 C   0  0  0  0  0  0  0  0  0  0  0  0
    3.3037   -4.8556   -0.0406 C   0  0  0  0  0  0  0  0  0  0  0  0
    3.2840   -6.2664   -0.0536 C   0  0  0  0  0  0  0  0  0  0  0  0
    2.0833   -6.9510   -0.0518 C   0  0  0  0  0  0  0  0  0  0  0  0
    0.8878   -6.2395   -0.0383 C   0  0  0  0  0  0  0  0  0  0  0  0
   -0.4131   -6.9240   -0.0360 C   0  0  0  0  0  0  0  0  0  0  0  0
   -1.5261   -6.1553   -0.0159 N   0  0  0  0  0  0  0  0  0  0  0  0
   -0.4862   -8.1391   -0.0471 O   0  0  0  0  0  0  0  0  0  0  0  0
    4.6098   -6.6639   -0.0664 N   0  0  0  0  0  0  0  0  0  0  0  0
    4.9362   -7.5772   -0.0774 H   0  0  0  0  0  0  0  0  0  0  0  0
    5.3693   -5.5369   -0.0611 C   0  0  0  0  0  0  0  0  0  0  0  0
    4.6088   -4.4809   -0.0461 N   0  0  0  0  0  0  0  0  0  0  0  0
   -6.6376   -4.6960    0.0396 S   0  0  0  0  0  0  0  0  0  0  0  0
   -6.4230   -5.9894    0.5875 O   0  0  0  0  0  0  0  0  0  0  0  0
   -7.5659   -3.7765    0.5982 O   0  0  0  0  0  0  0  0  0  0  0  0
   -7.0842   -4.9189   -1.5394 N   0  0  0  0  0  0  0  0  0  0  0  0
   -7.8618   -3.8963   -2.2556 C   0  0  0  0  0  0  0  0  0  0  0  0
   -7.1564   -3.5877   -3.5805 C   0  0  0  0  0  0  0  0  0  0  0  0
   -6.9438   -4.8383   -4.3213 N   0  0  0  0  0  0  0  0  0  0  0  0
   -6.0535   -5.7476   -3.5874 C   0  0  0  0  0  0  0  0  0  0  0  0
   -6.7085   -6.1421   -2.2647 C   0  0  0  0  0  0  0  0  0  0  0  0
   -6.4267   -4.5699   -5.6698 C   0  0  0  0  0  0  0  0  0  0  0  0
    1.0039    1.9031    0.0027 H   0  0  0  0  0  0  0  0  0  0  0  0
   -0.5459    1.8868   -0.8726 H   0  0  0  0  0  0  0  0  0  0  0  0
   -0.5289    1.8773    0.9072 H   0  0  0  0  0  0  0  0  0  0  0  0
    0.5123   -0.3556   -0.8948 H   0  0  0  0  0  0  0  0  0  0  0  0
    0.5293   -0.3651    0.8851 H   0  0  0  0  0  0  0  0  0  0  0  0
   -1.9435   -0.1821    0.9097 H   0  0  0  0  0  0  0  0  0  0  0  0
   -1.9605   -0.1726   -0.8702 H   0  0  0  0  0  0  0  0  0  0  0  0
   -3.7494   -0.7796    0.0241 H   0  0  0  0  0  0  0  0  0  0  0  0
   -5.9231   -1.9258    0.0375 H   0  0  0  0  0  0  0  0  0  0  0  0
   -3.9662   -5.7134    0.0198 H   0  0  0  0  0  0  0  0  0  0  0  0
    2.1230   -3.0589   -0.0169 H   0  0  0  0  0  0  0  0  0  0  0  0
    2.0732   -8.0309   -0.0621 H   0  0  0  0  0  0  0  0  0  0  0  0
    6.4491   -5.5200   -0.0677 H   0  0  0  0  0  0  0  0  0  0  0  0
   -8.8656   -4.2720   -2.4540 H   0  0  0  0  0  0  0  0  0  0  0  0
   -7.9194   -2.9907   -1.6518 H   0  0  0  0  0  0  0  0  0  0  0  0
   -7.7750   -2.9142   -4.1736 H   0  0  0  0  0  0  0  0  0  0  0  0
   -6.1945   -3.1162   -3.3792 H   0  0  0  0  0  0  0  0  0  0  0  0
   -5.8723   -6.6406   -4.1856 H   0  0  0  0  0  0  0  0  0  0  0  0
   -5.1070   -5.2460   -3.3860 H   0  0  0  0  0  0  0  0  0  0  0  0
   -6.0041   -6.7204   -1.6669 H   0  0  0  0  0  0  0  0  0  0  0  0
   -7.5993   -6.7378   -2.4640 H   0  0  0  0  0  0  0  0  0  0  0  0
   -5.4762   -4.0415   -5.5960 H   0  0  0  0  0  0  0  0  0  0  0  0
   -6.2784   -5.5127   -6.1963 H   0  0  0  0  0  0  0  0  0  0  0  0
   -7.1419   -3.9564   -6.2177 H   0  0  0  0  0  0  0  0  0  0  0  0
   -2.4005   -6.5750   -0.0098 H   0  0  0  0  0  0  0  0  0  0  0  0
  1  2  1  0  0  0  0
  1 36  1  0  0  0  0
  1 37  1  0  0  0  0
  1 38  1  0  0  0  0
  2  3  1  0  0  0  0
  2 39  1  0  0  0  0
  2 40  1  0  0  0  0
  3  4  1  0  0  0  0
  3 41  1  0  0  0  0
  3 42  1  0  0  0  0
  4  5  1  0  0  0  0
  5 10  2  0  0  0  0
  5  6  1  0  0  0  0
  6  7  2  0  0  0  0
  6 43  1  0  0  0  0
  7  8  1  0  0  0  0
  7 44  1  0  0  0  0
  8  9  2  0  0  0  0
  8 26  1  0  0  0  0
  9 10  1  0  0  0  0
  9 45  1  0  0  0  0
 10 11  1  0  0  0  0
 11 20  1  0  0  0  0
 11 12  2  0  0  0  0
 12 13  1  0  0  0  0
 13 18  2  0  0  0  0
 13 14  1  0  0  0  0
 14 15  2  0  0  0  0
 14 46  1  0  0  0  0
 15 25  1  0  0  0  0
 15 16  1  0  0  0  0
 16 17  2  0  0  0  0
 16 22  1  0  0  0  0
 17 18  1  0  0  0  0
 17 47  1  0  0  0  0
 18 19  1  0  0  0  0
 19 20  1  0  0  0  0
 19 21  2  0  0  0  0
 20 60  1  0  0  0  0
 22 23  1  0  0  0  0
 22 24  1  0  0  0  0
 24 25  2  0  0  0  0
 24 48  1  0  0  0  0
 26 27  2  0  0  0  0
 26 28  2  0  0  0  0
 26 29  1  0  0  0  0
 29 34  1  0  0  0  0
 29 30  1  0  0  0  0
 30 31  1  0  0  0  0
 30 49  1  0  0  0  0
 30 50  1  0  0  0  0
 31 32  1  0  0  0  0
 31 51  1  0  0  0  0
 31 52  1  0  0  0  0
 32 33  1  0  0  0  0
 32 35  1  0  0  0  0
 33 34  1  0  0  0  0
 33 53  1  0  0  0  0
 33 54  1  0  0  0  0
 34 55  1  0  0  0  0
 34 56  1  0  0  0  0
 35 57  1  0  0  0  0
 35 58  1  0  0  0  0
 35 59  1  0  0  0  0
M  END
$$$$
CHEMBL22906
  -OEChem-07121202283D

 59 63  0     0  0  0  0  0  0999 V2000
   -0.0187    1.5258    0.0104 C   0  0  0  0  0  0  0  0  0  0  0  0
    0.0021   -0.0041    0.0020 C   0  0  0  0  0  0  0  0  0  0  0  0
    0.7182   -0.4975   -1.2568 C   0  0  0  0  0  0  0  0  0  0  0  0
    0.7376   -1.9263   -1.2646 O   0  0  0  0  0  0  0  0  0  0  0  0
    1.3407   -2.5288   -2.3214 C   0  0  0  0  0  0  0  0  0  0  0  0
    1.9081   -1.7631   -3.3282 C   0  0  0  0  0  0  0  0  0  0  0  0
    2.5218   -2.3773   -4.4025 C   0  0  0  0  0  0  0  0  0  0  0  0
    2.5748   -3.7585   -4.4815 C   0  0  0  0  0  0  0  0  0  0  0  0
    2.0147   -4.5335   -3.4874 C   0  0  0  0  0  0  0  0  0  0  0  0
    1.3972   -3.9247   -2.3955 C   0  0  0  0  0  0  0  0  0  0  0  0
    0.7995   -4.7518   -1.3220 C   0  0  0  0  0  0  0  0  0  0  0  0
    0.8747   -6.0653   -1.4198 N   0  0  0  0  0  0  0  0  0  0  0  0
    0.3453   -6.8490   -0.4666 C   0  0  0  0  0  0  0  0  0  0  0  0
    0.4123   -8.2406   -0.5470 C   0  0  0  0  0  0  0  0  0  0  0  0
   -0.1486   -9.0138    0.4621 C   0  0  0  0  0  0  0  0  0  0  0  0
   -0.7834   -8.3953    1.5636 C   0  0  0  0  0  0  0  0  0  0  0  0
   -0.8551   -7.0220    1.6528 C   0  0  0  0  0  0  0  0  0  0  0  0
   -0.2944   -6.2351    0.6437 C   0  0  0  0  0  0  0  0  0  0  0  0
   -0.3429   -4.8206    0.6919 C   0  0  0  0  0  0  0  0  0  0  0  0
    0.2125   -4.1379   -0.2942 N   0  0  0  0  0  0  0  0  0  0  0  0
   -0.9398   -4.1830    1.7252 O   0  5  0  0  0  0  0  0  0  0  0  0
   -1.2269   -9.4282    2.3730 N   0  0  0  0  0  0  0  0  0  0  0  0
   -1.7051   -9.3366    3.2119 H   0  0  0  0  0  0  0  0  0  0  0  0
   -0.8682  -10.5946    1.7728 C   0  0  0  0  0  0  0  0  0  0  0  0
   -0.2398  -10.3555    0.6592 N   0  0  0  0  0  0  0  0  0  0  0  0
    3.3601   -4.5293   -5.8576 S   0  0  0  0  0  0  0  0  0  0  0  0
    2.7982   -5.8296   -5.9699 O   0  0  0  0  0  0  0  0  0  0  0  0
    3.3260   -3.5900   -6.9233 O   0  0  0  0  0  0  0  0  0  0  0  0
    4.9543   -4.7354   -5.4593 N   0  0  0  0  0  0  0  0  0  0  0  0
    5.9474   -3.6917   -5.7554 C   0  0  0  0  0  0  0  0  0  0  0  0
    6.7378   -3.3950   -4.4765 C   0  0  0  0  0  0  0  0  0  0  0  0
    7.2923   -4.6474   -3.9458 N   0  0  0  0  0  0  0  0  0  0  0  0
    6.2259   -5.5807   -3.5588 C   0  0  0  0  0  0  0  0  0  0  0  0
    5.4135   -5.9644   -4.7945 C   0  0  0  0  0  0  0  0  0  0  0  0
    8.1979   -4.3864   -2.8189 C   0  0  0  0  0  0  0  0  0  0  0  0
    1.0039    1.9031    0.0027 H   0  0  0  0  0  0  0  0  0  0  0  0
   -0.5459    1.8868   -0.8726 H   0  0  0  0  0  0  0  0  0  0  0  0
   -0.5289    1.8773    0.9072 H   0  0  0  0  0  0  0  0  0  0  0  0
    0.5293   -0.3651    0.8851 H   0  0  0  0  0  0  0  0  0  0  0  0
   -1.0205   -0.3814    0.0098 H   0  0  0  0  0  0  0  0  0  0  0  0
    0.1910   -0.1364   -2.1398 H   0  0  0  0  0  0  0  0  0  0  0  0
    1.7408   -0.1202   -1.2645 H   0  0  0  0  0  0  0  0  0  0  0  0
    1.8698   -0.6852   -3.2728 H   0  0  0  0  0  0  0  0  0  0  0  0
    2.9622   -1.7771   -5.1849 H   0  0  0  0  0  0  0  0  0  0  0  0
    2.0578   -5.6106   -3.5528 H   0  0  0  0  0  0  0  0  0  0  0  0
    0.8968   -8.7136   -1.3884 H   0  0  0  0  0  0  0  0  0  0  0  0
   -1.3414   -6.5569    2.4976 H   0  0  0  0  0  0  0  0  0  0  0  0
   -1.0751  -11.5793    2.1651 H   0  0  0  0  0  0  0  0  0  0  0  0
    6.6265   -4.0424   -6.5325 H   0  0  0  0  0  0  0  0  0  0  0  0
    5.4394   -2.7872   -6.0900 H   0  0  0  0  0  0  0  0  0  0  0  0
    7.5503   -2.7046   -4.7030 H   0  0  0  0  0  0  0  0  0  0  0  0
    6.0756   -2.9474   -3.7353 H   0  0  0  0  0  0  0  0  0  0  0  0
    6.6672   -6.4754   -3.1198 H   0  0  0  0  0  0  0  0  0  0  0  0
    5.5709   -5.1027   -2.8304 H   0  0  0  0  0  0  0  0  0  0  0  0
    4.5527   -6.5618   -4.4942 H   0  0  0  0  0  0  0  0  0  0  0  0
    6.0403   -6.5378   -5.4775 H   0  0  0  0  0  0  0  0  0  0  0  0
    7.6510   -3.8812   -2.0228 H   0  0  0  0  0  0  0  0  0  0  0  0
    8.5943   -5.3304   -2.4451 H   0  0  0  0  0  0  0  0  0  0  0  0
    9.0204   -3.7538   -3.1528 H   0  0  0  0  0  0  0  0  0  0  0  0
  1  2  1  0  0  0  0
  1 36  1  0  0  0  0
  1 37  1  0  0  0  0
  1 38  1  0  0  0  0
  2  3  1  0  0  0  0
  2 39  1  0  0  0  0
  2 40  1  0  0  0  0
  3  4  1  0  0  0  0
  3 41  1  0  0  0  0
  3 42  1  0  0  0  0
  4  5  1  0  0  0  0
  5 10  2  0  0  0  0
  5  6  1  0  0  0  0
  6  7  2  0  0  0  0
  6 43  1  0  0  0  0
  7  8  1  0  0  0  0
  7 44  1  0  0  0  0
  8  9  2  0  0  0  0
  8 26  1  0  0  0  0
  9 10  1  0  0  0  0
  9 45  1  0  0  0  0
 10 11  1  0  0  0  0
 11 20  2  0  0  0  0
 11 12  1  0  0  0  0
 12 13  2  0  0  0  0
 13 18  1  0  0  0  0
 13 14  1  0  0  0  0
 14 15  2  0  0  0  0
 14 46  1  0  0  0  0
 15 25  1  0  0  0  0
 15 16  1  0  0  0  0
 16 17  2  0  0  0  0
 16 22  1  0  0  0  0
 17 18  1  0  0  0  0
 17 47  1  0  0  0  0
 18 19  2  0  0  0  0
 19 20  1  0  0  0  0
 19 21  1  0  0  0  0
 22 23  1  0  0  0  0
 22 24  1  0  0  0  0
 24 25  2  0  0  0  0
 24 48  1  0  0  0  0
 26 27  2  0  0  0  0
 26 28  2  0  0  0  0
 26 29  1  0  0  0  0
 29 34  1  0  0  0  0
 29 30  1  0  0  0  0
 30 31  1  0  0  0  0
 30 49  1  0  0  0  0
 30 50  1  0  0  0  0
 31 32  1  0  0  0  0
 31 51  1  0  0  0  0
 31 52  1  0  0  0  0
 32 33  1  0  0  0  0
 32 35  1  0  0  0  0
 33 34  1  0  0  0  0
 33 53  1  0  0  0  0
 33 54  1  0  0  0  0
 34 55  1  0  0  0  0
 34 56  1  0  0  0  0
 35 57  1  0  0  0  0
 35 58  1  0  0  0  0
 35 59  1  0  0  0  0
M  CHG  1  21  -1
M  END
$$$$
CHEMBL22906
  -OEChem-07121202283D

 60 64  0     0  0  0  0  0  0999 V2000
   -0.0187    1.5258    0.0104 C   0  0  0  0  0  0  0  0  0  0  0  0
    0.0021   -0.0041    0.0020 C   0  0  0  0  0  0  0  0  0  0  0  0
   -1.4333   -0.5336    0.0129 C   0  0  0  0  0  0  0  0  0  0  0  0
   -1.4139   -1.9625    0.0050 O   0  0  0  0  0  0  0  0  0  0  0  0
   -2.6151   -2.5953    0.0131 C   0  0  0  0  0  0  0  0  0  0  0  0
   -3.7896   -1.8588    0.0225 C   0  0  0  0  0  0  0  0  0  0  0  0
   -5.0110   -2.5038    0.0302 C   0  0  0  0  0  0  0  0  0  0  0  0
   -5.0712   -3.8870    0.0286 C   0  0  0  0  0  0  0  0  0  0  0  0
   -3.9112   -4.6331    0.0194 C   0  0  0  0  0  0  0  0  0  0  0  0
   -2.6726   -3.9931    0.0061 C   0  0  0  0  0  0  0  0  0  0  0  0
   -1.4236   -4.7892   -0.0100 C   0  0  0  0  0  0  0  0  0  0  0  0
   -1.5129   -6.1054   -0.0217 N   0  0  0  0  0  0  0  0  0  0  0  0
   -0.4033   -6.8615   -0.0370 C   0  0  0  0  0  0  0  0  0  0  0  0
   -0.4716   -8.2553   -0.0500 C   0  0  0  0  0  0  0  0  0  0  0  0
    0.7019   -8.9993   -0.0660 C   0  0  0  0  0  0  0  0  0  0  0  0
    1.9573   -8.3491   -0.0692 C   0  0  0  0  0  0  0  0  0  0  0  0
    2.0359   -6.9734   -0.0564 C   0  0  0  0  0  0  0  0  0  0  0  0
    0.8622   -6.2157   -0.0402 C   0  0  0  0  0  0  0  0  0  0  0  0
    0.8927   -4.7999   -0.0272 C   0  0  0  0  0  0  0  0  0  0  0  0
   -0.2558   -4.1458   -0.0177 N   0  0  0  0  0  0  0  0  0  0  0  0
    2.0696   -4.1325   -0.0292 O   0  5  0  0  0  0  0  0  0  0  0  0
    2.9056   -9.3587   -0.0861 N   0  0  0  0  0  0  0  0  0  0  0  0
    3.8686   -9.2429   -0.0917 H   0  0  0  0  0  0  0  0  0  0  0  0
    2.2360  -10.5423   -0.0926 C   0  0  0  0  0  0  0  0  0  0  0  0
    0.9518  -10.3352   -0.0809 N   0  0  0  0  0  0  0  0  0  0  0  0
   -6.6358   -4.6973    0.0391 S   0  0  0  0  0  0  0  0  0  0  0  0
   -6.4196   -5.9907    0.5865 O   0  0  0  0  0  0  0  0  0  0  0  0
   -7.5650   -3.7790    0.5983 O   0  0  0  0  0  0  0  0  0  0  0  0
   -7.0824   -4.9202   -1.5399 N   0  0  0  0  0  0  0  0  0  0  0  0
   -7.8613   -3.8989   -2.2570 C   0  0  0  0  0  0  0  0  0  0  0  0
   -7.1653   -3.6044   -3.5899 C   0  0  0  0  0  0  0  0  0  0  0  0
   -6.9809   -4.8579   -4.3321 N   0  3  0  0  0  0  0  0  0  0  0  0
   -6.0693   -5.7443   -3.5979 C   0  0  0  0  0  0  0  0  0  0  0  0
   -6.7061   -6.1424   -2.2670 C   0  0  0  0  0  0  0  0  0  0  0  0
   -6.4143   -4.5627   -5.6549 C   0  0  0  0  0  0  0  0  0  0  0  0
    1.0039    1.9031    0.0027 H   0  0  0  0  0  0  0  0  0  0  0  0
   -0.5459    1.8868   -0.8726 H   0  0  0  0  0  0  0  0  0  0  0  0
   -0.5289    1.8773    0.9072 H   0  0  0  0  0  0  0  0  0  0  0  0
    0.5123   -0.3556   -0.8948 H   0  0  0  0  0  0  0  0  0  0  0  0
    0.5293   -0.3651    0.8851 H   0  0  0  0  0  0  0  0  0  0  0  0
   -1.9435   -0.1821    0.9097 H   0  0  0  0  0  0  0  0  0  0  0  0
   -1.9605   -0.1726   -0.8702 H   0  0  0  0  0  0  0  0  0  0  0  0
   -3.7496   -0.7795    0.0241 H   0  0  0  0  0  0  0  0  0  0  0  0
   -5.9236   -1.9263    0.0378 H   0  0  0  0  0  0  0  0  0  0  0  0
   -3.9624   -5.7119    0.0185 H   0  0  0  0  0  0  0  0  0  0  0  0
   -1.4303   -8.7526   -0.0472 H   0  0  0  0  0  0  0  0  0  0  0  0
    2.9987   -6.4840   -0.0592 H   0  0  0  0  0  0  0  0  0  0  0  0
    2.7038  -11.5156   -0.1061 H   0  0  0  0  0  0  0  0  0  0  0  0
   -8.8686   -4.2710   -2.4441 H   0  0  0  0  0  0  0  0  0  0  0  0
   -7.9091   -2.9884   -1.6597 H   0  0  0  0  0  0  0  0  0  0  0  0
   -7.7789   -2.9212   -4.1772 H   0  0  0  0  0  0  0  0  0  0  0  0
   -6.1938   -3.1483   -3.3997 H   0  0  0  0  0  0  0  0  0  0  0  0
   -5.8752   -6.6380   -4.1909 H   0  0  0  0  0  0  0  0  0  0  0  0
   -5.1309   -5.2235   -3.4074 H   0  0  0  0  0  0  0  0  0  0  0  0
   -5.9906   -6.7144   -1.6764 H   0  0  0  0  0  0  0  0  0  0  0  0
   -7.5948   -6.7449   -2.4552 H   0  0  0  0  0  0  0  0  0  0  0  0
   -5.4517   -4.0656   -5.5352 H   0  0  0  0  0  0  0  0  0  0  0  0
   -6.2769   -5.4925   -6.2070 H   0  0  0  0  0  0  0  0  0  0  0  0
   -7.0939   -3.9111   -6.2042 H   0  0  0  0  0  0  0  0  0  0  0  0
   -7.8734   -5.3146   -4.4455 H   0  0  0  0  0  0  0  0  0  0  0  0
  1  2  1  0  0  0  0
  1 36  1  0  0  0  0
  1 37  1  0  0  0  0
  1 38  1  0  0  0  0
  2  3  1  0  0  0  0
  2 39  1  0  0  0  0
  2 40  1  0  0  0  0
  3  4  1  0  0  0  0
  3 41  1  0  0  0  0
  3 42  1  0  0  0  0
  4  5  1  0  0  0  0
  5 10  2  0  0  0  0
  5  6  1  0  0  0  0
  6  7  2  0  0  0  0
  6 43  1  0  0  0  0
  7  8  1  0  0  0  0
  7 44  1  0  0  0  0
  8  9  2  0  0  0  0
  8 26  1  0  0  0  0
  9 10  1  0  0  0  0
  9 45  1  0  0  0  0
 10 11  1  0  0  0  0
 11 20  2  0  0  0  0
 11 12  1  0  0  0  0
 12 13  2  0  0  0  0
 13 18  1  0  0  0  0
 13 14  1  0  0  0  0
 14 15  2  0  0  0  0
 14 46  1  0  0  0  0
 15 25  1  0  0  0  0
 15 16  1  0  0  0  0
 16 17  2  0  0  0  0
 16 22  1  0  0  0  0
 17 18  1  0  0  0  0
 17 47  1  0  0  0  0
 18 19  2  0  0  0  0
 19 20  1  0  0  0  0
 19 21  1  0  0  0  0
 22 23  1  0  0  0  0
 22 24  1  0  0  0  0
 24 25  2  0  0  0  0
 24 48  1  0  0  0  0
 26 27  2  0  0  0  0
 26 28  2  0  0  0  0
 26 29  1  0  0  0  0
 29 34  1  0  0  0  0
 29 30  1  0  0  0  0
 30 31  1  0  0  0  0
 30 49  1  0  0  0  0
 30 50  1  0  0  0  0
 31 32  1  0  0  0  0
 31 51  1  0  0  0  0
 31 52  1  0  0  0  0
 32 33  1  0  0  0  0
 32 35  1  0  0  0  0
 32 60  1  0  0  0  0
 33 34  1  0  0  0  0
 33 53  1  0  0  0  0
 33 54  1  0  0  0  0
 34 55  1  0  0  0  0
 34 56  1  0  0  0  0
 35 57  1  0  0  0  0
 35 58  1  0  0  0  0
 35 59  1  0  0  0  0
M  CHG  2  21  -1  32   1
M  END
$$$$
CHEMBL22906
  -OEChem-07121202283D

 61 65  0     0  0  0  0  0  0999 V2000
   -0.0187    1.5258    0.0104 C   0  0  0  0  0  0  0  0  0  0  0  0
    0.0021   -0.0041    0.0020 C   0  0  0  0  0  0  0  0  0  0  0  0
   -1.4333   -0.5336    0.0129 C   0  0  0  0  0  0  0  0  0  0  0  0
   -1.4139   -1.9625    0.0050 O   0  0  0  0  0  0  0  0  0  0  0  0
   -2.6147   -2.5951    0.0131 C   0  0  0  0  0  0  0  0  0  0  0  0
   -3.7894   -1.8588    0.0225 C   0  0  0  0  0  0  0  0  0  0  0  0
   -5.0107   -2.5038    0.0302 C   0  0  0  0  0  0  0  0  0  0  0  0
   -5.0722   -3.8874    0.0291 C   0  0  0  0  0  0  0  0  0  0  0  0
   -3.9138   -4.6347    0.0203 C   0  0  0  0  0  0  0  0  0  0  0  0
   -2.6726   -3.9949    0.0061 C   0  0  0  0  0  0  0  0  0  0  0  0
   -1.4285   -4.7890   -0.0095 C   0  0  0  0  0  0  0  0  0  0  0  0
   -0.2843   -4.1552   -0.0112 N   0  0  0  0  0  0  0  0  0  0  0  0
    0.8969   -4.8215   -0.0252 C   0  0  0  0  0  0  0  0  0  0  0  0
    2.1084   -4.1388   -0.0265 C   0  0  0  0  0  0  0  0  0  0  0  0
    3.3037   -4.8556   -0.0406 C   0  0  0  0  0  0  0  0  0  0  0  0
    3.2840   -6.2664   -0.0536 C   0  0  0  0  0  0  0  0  0  0  0  0
    2.0833   -6.9510   -0.0518 C   0  0  0  0  0  0  0  0  0  0  0  0
    0.8878   -6.2395   -0.0383 C   0  0  0  0  0  0  0  0  0  0  0  0
   -0.4131   -6.9240   -0.0360 C   0  0  0  0  0  0  0  0  0  0  0  0
   -1.5261   -6.1553   -0.0159 N   0  0  0  0  0  0  0  0  0  0  0  0
   -0.4862   -8.1391   -0.0471 O   0  0  0  0  0  0  0  0  0  0  0  0
    4.6098   -6.6639   -0.0664 N   0  0  0  0  0  0  0  0  0  0  0  0
    4.9362   -7.5772   -0.0774 H   0  0  0  0  0  0  0  0  0  0  0  0
    5.3693   -5.5369   -0.0611 C   0  0  0  0  0  0  0  0  0  0  0  0
    4.6088   -4.4809   -0.0461 N   0  0  0  0  0  0  0  0  0  0  0  0
   -6.6376   -4.6960    0.0396 S   0  0  0  0  0  0  0  0  0  0  0  0
   -6.4230   -5.9894    0.5875 O   0  0  0  0  0  0  0  0  0  0  0  0
   -7.5659   -3.7765    0.5982 O   0  0  0  0  0  0  0  0  0  0  0  0
   -7.0842   -4.9189   -1.5394 N   0  0  0  0  0  0  0  0  0  0  0  0
   -7.8619   -3.8970   -2.2570 C   0  0  0  0  0  0  0  0  0  0  0  0
   -7.1653   -3.6037   -3.5899 C   0  0  0  0  0  0  0  0  0  0  0  0
   -6.9821   -4.8577   -4.3317 N   0  3  0  0  0  0  0  0  0  0  0  0
   -6.0716   -5.7449   -3.5969 C   0  0  0  0  0  0  0  0  0  0  0  0
   -6.7092   -6.1418   -2.2661 C   0  0  0  0  0  0  0  0  0  0  0  0
   -6.4150   -4.5636   -5.6545 C   0  0  0  0  0  0  0  0  0  0  0  0
    1.0039    1.9031    0.0027 H   0  0  0  0  0  0  0  0  0  0  0  0
   -0.5459    1.8868   -0.8726 H   0  0  0  0  0  0  0  0  0  0  0  0
   -0.5289    1.8773    0.9072 H   0  0  0  0  0  0  0  0  0  0  0  0
    0.5123   -0.3556   -0.8948 H   0  0  0  0  0  0  0  0  0  0  0  0
    0.5293   -0.3651    0.8851 H   0  0  0  0  0  0  0  0  0  0  0  0
   -1.9435   -0.1821    0.9097 H   0  0  0  0  0  0  0  0  0  0  0  0
   -1.9605   -0.1726   -0.8702 H   0  0  0  0  0  0  0  0  0  0  0  0
   -3.7494   -0.7796    0.0241 H   0  0  0  0  0  0  0  0  0  0  0  0
   -5.9231   -1.9258    0.0375 H   0  0  0  0  0  0  0  0  0  0  0  0
   -3.9662   -5.7134    0.0198 H   0  0  0  0  0  0  0  0  0  0  0  0
    2.1230   -3.0589   -0.0169 H   0  0  0  0  0  0  0  0  0  0  0  0
    2.0732   -8.0309   -0.0621 H   0  0  0  0  0  0  0  0  0  0  0  0
    6.4491   -5.5200   -0.0677 H   0  0  0  0  0  0  0  0  0  0  0  0
   -8.8695   -4.2680   -2.4442 H   0  0  0  0  0  0  0  0  0  0  0  0
   -7.9088   -2.9862   -1.6601 H   0  0  0  0  0  0  0  0  0  0  0  0
   -7.7780   -2.9201   -4.1775 H   0  0  0  0  0  0  0  0  0  0  0  0
   -6.1933   -3.1487   -3.3996 H   0  0  0  0  0  0  0  0  0  0  0  0
   -5.8784   -6.6390   -4.1897 H   0  0  0  0  0  0  0  0  0  0  0  0
   -5.1327   -5.2251   -3.4064 H   0  0  0  0  0  0  0  0  0  0  0  0
   -5.9943   -6.7144   -1.6751 H   0  0  0  0  0  0  0  0  0  0  0  0
   -7.5985   -6.7433   -2.4542 H   0  0  0  0  0  0  0  0  0  0  0  0
   -5.4518   -4.0675   -5.5347 H   0  0  0  0  0  0  0  0  0  0  0  0
   -6.2785   -5.4938   -6.2062 H   0  0  0  0  0  0  0  0  0  0  0  0
   -7.0938   -3.9115   -6.2040 H   0  0  0  0  0  0  0  0  0  0  0  0
   -2.4005   -6.5750   -0.0098 H   0  0  0  0  0  0  0  0  0  0  0  0
   -7.8752   -5.3134   -4.4451 H   0  0  0  0  0  0  0  0  0  0  0  0
  1  2  1  0  0  0  0
  1 36  1  0  0  0  0
  1 37  1  0  0  0  0
  1 38  1  0  0  0  0
  2  3  1  0  0  0  0
  2 39  1  0  0  0  0
  2 40  1  0  0  0  0
  3  4  1  0  0  0  0
  3 41  1  0  0  0  0
  3 42  1  0  0  0  0
  4  5  1  0  0  0  0
  5 10  2  0  0  0  0
  5  6  1  0  0  0  0
  6  7  2  0  0  0  0
  6 43  1  0  0  0  0
  7  8  1  0  0  0  0
  7 44  1  0  0  0  0
  8  9  2  0  0  0  0
  8 26  1  0  0  0  0
  9 10  1  0  0  0  0
  9 45  1  0  0  0  0
 10 11  1  0  0  0  0
 11 20  1  0  0  0  0
 11 12  2  0  0  0  0
 12 13  1  0  0  0  0
 13 18  2  0  0  0  0
 13 14  1  0  0  0  0
 14 15  2  0  0  0  0
 14 46  1  0  0  0  0
 15 25  1  0  0  0  0
 15 16  1  0  0  0  0
 16 17  2  0  0  0  0
 16 22  1  0  0  0  0
 17 18  1  0  0  0  0
 17 47  1  0  0  0  0
 18 19  1  0  0  0  0
 19 20  1  0  0  0  0
 19 21  2  0  0  0  0
 20 60  1  0  0  0  0
 22 23  1  0  0  0  0
 22 24  1  0  0  0  0
 24 25  2  0  0  0  0
 24 48  1  0  0  0  0
 26 27  2  0  0  0  0
 26 28  2  0  0  0  0
 26 29  1  0  0  0  0
 29 34  1  0  0  0  0
 29 30  1  0  0  0  0
 30 31  1  0  0  0  0
 30 49  1  0  0  0  0
 30 50  1  0  0  0  0
 31 32  1  0  0  0  0
 31 51  1  0  0  0  0
 31 52  1  0  0  0  0
 32 33  1  0  0  0  0
 32 35  1  0  0  0  0
 32 61  1  0  0  0  0
 33 34  1  0  0  0  0
 33 53  1  0  0  0  0
 33 54  1  0  0  0  0
 34 55  1  0  0  0  0
 34 56  1  0  0  0  0
 35 57  1  0  0  0  0
 35 58  1  0  0  0  0
 35 59  1  0  0  0  0
M  CHG  1  32   1
M  END
$$$$
CHEMBL22906
  -OEChem-07121202283D

 60 64  0     0  0  0  0  0  0999 V2000
   -0.0187    1.5258    0.0104 C   0  0  0  0  0  0  0  0  0  0  0  0
    0.0021   -0.0041    0.0020 C   0  0  0  0  0  0  0  0  0  0  0  0
   -1.4333   -0.5336    0.0129 C   0  0  0  0  0  0  0  0  0  0  0  0
   -1.4139   -1.9625    0.0050 O   0  0  0  0  0  0  0  0  0  0  0  0
   -2.6142   -2.5948    0.0131 C   0  0  0  0  0  0  0  0  0  0  0  0
   -3.7893   -1.8585    0.0225 C   0  0  0  0  0  0  0  0  0  0  0  0
   -5.0103   -2.5034    0.0312 C   0  0  0  0  0  0  0  0  0  0  0  0
   -5.0721   -3.8875    0.0302 C   0  0  0  0  0  0  0  0  0  0  0  0
   -3.9148   -4.6352    0.0208 C   0  0  0  0  0  0  0  0  0  0  0  0
   -2.6723   -3.9956    0.0061 C   0  0  0  0  0  0  0  0  0  0  0  0
   -1.4299   -4.7892   -0.0106 C   0  0  0  0  0  0  0  0  0  0  0  0
   -1.5266   -6.1464   -0.0225 N   0  0  0  0  0  0  0  0  0  0  0  0
   -0.3825   -6.9287   -0.0379 C   0  0  0  0  0  0  0  0  0  0  0  0
   -0.4522   -8.3072   -0.0502 C   0  0  0  0  0  0  0  0  0  0  0  0
    0.7253   -9.0577   -0.0660 C   0  0  0  0  0  0  0  0  0  0  0  0
    1.9763   -8.4075   -0.0693 C   0  0  0  0  0  0  0  0  0  0  0  0
    2.0466   -7.0270   -0.0581 C   0  0  0  0  0  0  0  0  0  0  0  0
    0.8720   -6.2824   -0.0413 C   0  0  0  0  0  0  0  0  0  0  0  0
    0.8923   -4.8082   -0.0283 C   0  0  0  0  0  0  0  0  0  0  0  0
   -0.2784   -4.1526   -0.0187 N   0  0  0  0  0  0  0  0  0  0  0  0
    1.9486   -4.1988   -0.0302 O   0  0  0  0  0  0  0  0  0  0  0  0
    2.9266   -9.4136   -0.0851 N   0  0  0  0  0  0  0  0  0  0  0  0
    3.8894   -9.2953   -0.0910 H   0  0  0  0  0  0  0  0  0  0  0  0
    2.2602  -10.5981   -0.0907 C   0  0  0  0  0  0  0  0  0  0  0  0
    0.9751  -10.3916   -0.0796 N   0  0  0  0  0  0  0  0  0  0  0  0
   -6.6380   -4.6954    0.0413 S   0  0  0  0  0  0  0  0  0  0  0  0
   -6.4237   -5.9890    0.5891 O   0  0  0  0  0  0  0  0  0  0  0  0
   -7.5656   -3.7755    0.6004 O   0  0  0  0  0  0  0  0  0  0  0  0
   -7.0853   -4.9181   -1.5375 N   0  0  0  0  0  0  0  0  0  0  0  0
   -7.8628   -3.8952   -2.2533 C   0  0  0  0  0  0  0  0  0  0  0  0
   -7.1578   -3.5868   -3.5785 C   0  0  0  0  0  0  0  0  0  0  0  0
   -6.9461   -4.8375   -4.3194 N   0  0  0  0  0  0  0  0  0  0  0  0
   -6.0560   -5.7472   -3.5859 C   0  0  0  0  0  0  0  0  0  0  0  0
   -6.7105   -6.1414   -2.2629 C   0  0  0  0  0  0  0  0  0  0  0  0
   -6.4295   -4.5694   -5.6682 C   0  0  0  0  0  0  0  0  0  0  0  0
    1.0039    1.9031    0.0027 H   0  0  0  0  0  0  0  0  0  0  0  0
   -0.5459    1.8868   -0.8726 H   0  0  0  0  0  0  0  0  0  0  0  0
   -0.5289    1.8773    0.9072 H   0  0  0  0  0  0  0  0  0  0  0  0
    0.5123   -0.3556   -0.8948 H   0  0  0  0  0  0  0  0  0  0  0  0
    0.5293   -0.3651    0.8851 H   0  0  0  0  0  0  0  0  0  0  0  0
   -1.9435   -0.1821    0.9097 H   0  0  0  0  0  0  0  0  0  0  0  0
   -1.9605   -0.1726   -0.8702 H   0  0  0  0  0  0  0  0  0  0  0  0
   -3.7495   -0.7793    0.0234 H   0  0  0  0  0  0  0  0  0  0  0  0
   -5.9225   -1.9254    0.0393 H   0  0  0  0  0  0  0  0  0  0  0  0
   -3.9678   -5.7139    0.0208 H   0  0  0  0  0  0  0  0  0  0  0  0
   -1.4119   -8.8025   -0.0472 H   0  0  0  0  0  0  0  0  0  0  0  0
    3.0058   -6.5307   -0.0606 H   0  0  0  0  0  0  0  0  0  0  0  0
    2.7294  -11.5708   -0.1027 H   0  0  0  0  0  0  0  0  0  0  0  0
   -8.8668   -4.2704   -2.4513 H   0  0  0  0  0  0  0  0  0  0  0  0
   -7.9198   -2.9895   -1.6495 H   0  0  0  0  0  0  0  0  0  0  0  0
   -7.7764   -2.9131   -4.1714 H   0  0  0  0  0  0  0  0  0  0  0  0
   -6.1956   -3.1158   -3.3776 H   0  0  0  0  0  0  0  0  0  0  0  0
   -5.8754   -6.6403   -4.1842 H   0  0  0  0  0  0  0  0  0  0  0  0
   -5.1091   -5.2461   -3.3850 H   0  0  0  0  0  0  0  0  0  0  0  0
   -6.0061   -6.7201   -1.6654 H   0  0  0  0  0  0  0  0  0  0  0  0
   -7.6017   -6.7367   -2.4619 H   0  0  0  0  0  0  0  0  0  0  0  0
   -5.4787   -4.0414   -5.5948 H   0  0  0  0  0  0  0  0  0  0  0  0
   -6.2818   -5.5122   -6.1948 H   0  0  0  0  0  0  0  0  0  0  0  0
   -7.1446   -3.9555   -6.2158 H   0  0  0  0  0  0  0  0  0  0  0  0
   -2.4000   -6.5683   -0.0198 H   0  0  0  0  0  0  0  0  0  0  0  0
  1  2  1  0  0  0  0
  1 36  1  0  0  0  0
  1 37  1  0  0  0  0
  1 38  1  0  0  0  0
  2  3  1  0  0  0  0
  2 39  1  0  0  0  0
  2 40  1  0  0  0  0
  3  4  1  0  0  0  0
  3 41  1  0  0  0  0
  3 42  1  0  0  0  0
  4  5  1  0  0  0  0
  5 10  2  0  0  0  0
  5  6  1  0  0  0  0
  6  7  2  0  0  0  0
  6 43  1  0  0  0  0
  7  8  1  0  0  0  0
  7 44  1  0  0  0  0
  8  9  2  0  0  0  0
  8 26  1  0  0  0  0
  9 10  1  0  0  0  0
  9 45  1  0  0  0  0
 10 11  1  0  0  0  0
 11 20  2  0  0  0  0
 11 12  1  0  0  0  0
 12 13  1  0  0  0  0
 12 60  1  0  0  0  0
 13 18  2  0  0  0  0
 13 14  1  0  0  0  0
 14 15  2  0  0  0  0
 14 46  1  0  0  0  0
 15 25  1  0  0  0  0
 15 16  1  0  0  0  0
 16 17  2  0  0  0  0
 16 22  1  0  0  0  0
 17 18  1  0  0  0  0
 17 47  1  0  0  0  0
 18 19  1  0  0  0  0
 19 20  1  0  0  0  0
 19 21  2  0  0  0  0
 22 23  1  0  0  0  0
 22 24  1  0  0  0  0
 24 25  2  0  0  0  0
 24 48  1  0  0  0  0
 26 27  2  0  0  0  0
 26 28  2  0  0  0  0
 26 29  1  0  0  0  0
 29 34  1  0  0  0  0
 29 30  1  0  0  0  0
 30 31  1  0  0  0  0
 30 49  1  0  0  0  0
 30 50  1  0  0  0  0
 31 32  1  0  0  0  0
 31 51  1  0  0  0  0
 31 52  1  0  0  0  0
 32 33  1  0  0  0  0
 32 35  1  0  0  0  0
 33 34  1  0  0  0  0
 33 53  1  0  0  0  0
 33 54  1  0  0  0  0
 34 55  1  0  0  0  0
 34 56  1  0  0  0  0
 35 57  1  0  0  0  0
 35 58  1  0  0  0  0
 35 59  1  0  0  0  0
M  END
$$$$
CHEMBL63548
  -OEChem-07121202283D

 70 73  0     0  0  0  0  0  0999 V2000
   -0.0187    1.5258    0.0104 C   0  0  0  0  0  0  0  0  0  0  0  0
    0.0021   -0.0041    0.0020 C   0  0  0  0  0  0  0  0  0  0  0  0
   -1.4333   -0.5336    0.0129 C   0  0  0  0  0  0  0  0  0  0  0  0
   -1.4129   -2.0405    0.0046 C   0  0  0  0  0  0  0  0  0  0  0  0
   -1.4070   -2.8548   -1.1446 C   0  0  0  0  0  0  0  0  0  0  0  0
   -1.3864   -4.1841   -0.7031 C   0  0  0  0  0  0  0  0  0  0  0  0
   -1.3770   -5.2214   -1.6642 C   0  0  0  0  0  0  0  0  0  0  0  0
   -1.3883   -4.8848   -2.9731 N   0  0  0  0  0  0  0  0  0  0  0  0
   -1.4083   -3.5686   -3.3476 C   0  0  0  0  0  0  0  0  0  0  0  0
   -1.4173   -2.5966   -2.4679 N   0  0  0  0  0  0  0  0  0  0  0  0
   -1.4202   -3.2333   -4.7854 C   0  0  0  0  0  0  0  0  0  0  0  0
   -1.4169   -4.2492   -5.7432 C   0  0  0  0  0  0  0  0  0  0  0  0
   -1.4285   -3.9298   -7.0842 C   0  0  0  0  0  0  0  0  0  0  0  0
   -1.4431   -2.6046   -7.4863 C   0  0  0  0  0  0  0  0  0  0  0  0
   -1.4461   -1.5903   -6.5488 C   0  0  0  0  0  0  0  0  0  0  0  0
   -1.4408   -1.8942   -5.1962 C   0  0  0  0  0  0  0  0  0  0  0  0
   -1.4498   -0.8984   -4.2738 O   0  0  0  0  0  0  0  0  0  0  0  0
   -1.4708    0.4426   -4.7671 C   0  0  0  0  0  0  0  0  0  0  0  0
   -1.4782    1.4192   -3.5893 C   0  0  0  0  0  0  0  0  0  0  0  0
   -1.5007    2.8550   -4.1174 C   0  0  0  0  0  0  0  0  0  0  0  0
   -1.4243   -5.2129   -8.2917 S   0  0  0  0  0  0  0  0  0  0  0  0
   -0.8864   -4.6501   -9.4805 O   0  0  0  0  0  0  0  0  0  0  0  0
   -0.8587   -6.3569   -7.6668 O   0  0  0  0  0  0  0  0  0  0  0  0
   -3.0050   -5.5843   -8.6171 N   0  0  0  0  0  0  0  0  0  0  0  0
   -3.7149   -6.6142   -7.8428 C   0  0  0  0  0  0  0  0  0  0  0  0
   -5.0454   -6.0277   -7.3597 C   0  0  0  0  0  0  0  0  0  0  0  0
   -5.7967   -5.5087   -8.5095 N   0  3  0  0  0  0  0  0  0  0  0  0
   -5.0688   -4.3880   -9.1179 C   0  0  0  0  0  0  0  0  0  0  0  0
   -3.7411   -4.8893   -9.6845 C   0  0  0  0  0  0  0  0  0  0  0  0
   -7.1172   -5.0468   -8.0612 C   0  0  0  0  0  0  0  0  0  0  0  0
   -8.2056   -4.8230   -9.5065 P   0  0  0  0  0  0  0  0  0  0  0  0
   -7.5205   -3.8563  -10.5314 O   0  0  0  0  0  0  0  0  0  0  0  0
   -8.4611   -6.2105  -10.1877 O   0  5  0  0  0  0  0  0  0  0  0  0
   -9.5706   -4.2099   -9.0424 O   0  5  0  0  0  0  0  0  0  0  0  0
   -1.3587   -6.3907   -1.3206 O   0  0  0  0  0  0  0  0  0  0  0  0
   -1.3804   -4.1501    0.6637 N   0  0  0  0  0  0  0  0  0  0  0  0
   -1.3920   -2.8068    1.0614 N   0  0  0  0  0  0  0  0  0  0  0  0
   -1.3601   -5.3128    1.5547 C   0  0  0  0  0  0  0  0  0  0  0  0
    1.0039    1.9031    0.0027 H   0  0  0  0  0  0  0  0  0  0  0  0
   -0.5459    1.8868   -0.8726 H   0  0  0  0  0  0  0  0  0  0  0  0
   -0.5289    1.8773    0.9072 H   0  0  0  0  0  0  0  0  0  0  0  0
    0.5123   -0.3556   -0.8948 H   0  0  0  0  0  0  0  0  0  0  0  0
    0.5293   -0.3651    0.8851 H   0  0  0  0  0  0  0  0  0  0  0  0
   -1.9435   -0.1821    0.9097 H   0  0  0  0  0  0  0  0  0  0  0  0
   -1.9605   -0.1726   -0.8702 H   0  0  0  0  0  0  0  0  0  0  0  0
   -1.4049   -5.2839   -5.4339 H   0  0  0  0  0  0  0  0  0  0  0  0
   -1.4518   -2.3629   -8.5389 H   0  0  0  0  0  0  0  0  0  0  0  0
   -1.4567   -0.5591   -6.8699 H   0  0  0  0  0  0  0  0  0  0  0  0
   -0.5863    0.6184   -5.3793 H   0  0  0  0  0  0  0  0  0  0  0  0
   -2.3660    0.5939   -5.3702 H   0  0  0  0  0  0  0  0  0  0  0  0
   -2.3627    1.2433   -2.9771 H   0  0  0  0  0  0  0  0  0  0  0  0
   -0.5830    1.2679   -2.9862 H   0  0  0  0  0  0  0  0  0  0  0  0
   -1.5060    3.5507   -3.2784 H   0  0  0  0  0  0  0  0  0  0  0  0
   -0.6162    3.0308   -4.7297 H   0  0  0  0  0  0  0  0  0  0  0  0
   -2.3960    3.0063   -4.7205 H   0  0  0  0  0  0  0  0  0  0  0  0
   -3.9049   -7.4816   -8.4750 H   0  0  0  0  0  0  0  0  0  0  0  0
   -3.1109   -6.9082   -6.9844 H   0  0  0  0  0  0  0  0  0  0  0  0
   -5.6278   -6.8059   -6.8663 H   0  0  0  0  0  0  0  0  0  0  0  0
   -4.8516   -5.2177   -6.6565 H   0  0  0  0  0  0  0  0  0  0  0  0
   -5.6683   -3.9578   -9.9202 H   0  0  0  0  0  0  0  0  0  0  0  0
   -4.8742   -3.6275   -8.3616 H   0  0  0  0  0  0  0  0  0  0  0  0
   -3.1545   -4.0434  -10.0430 H   0  0  0  0  0  0  0  0  0  0  0  0
   -3.9338   -5.5795  -10.5058 H   0  0  0  0  0  0  0  0  0  0  0  0
   -7.5524   -5.7870   -7.3899 H   0  0  0  0  0  0  0  0  0  0  0  0
   -7.0111   -4.0977   -7.5359 H   0  0  0  0  0  0  0  0  0  0  0  0
   -0.3275   -5.5869    1.7708 H   0  0  0  0  0  0  0  0  0  0  0  0
   -1.8729   -5.0670    2.4846 H   0  0  0  0  0  0  0  0  0  0  0  0
   -1.8646   -6.1496    1.0717 H   0  0  0  0  0  0  0  0  0  0  0  0
   -5.9137   -6.2424   -9.1922 H   0  0  0  0  0  0  0  0  0  0  0  0
   -1.3818   -5.5793   -3.6502 H   0  0  0  0  0  0  0  0  0  0  0  0
  1  2  1  0  0  0  0
  1 39  1  0  0  0  0
  1 40  1  0  0  0  0
  1 41  1  0  0  0  0
  2  3  1  0  0  0  0
  2 42  1  0  0  0  0
  2 43  1  0  0  0  0
  3  4  1  0  0  0  0
  3 44  1  0  0  0  0
  3 45  1  0  0  0  0
  4 37  2  0  0  0  0
  4  5  1  0  0  0  0
  5 10  1  0  0  0  0
  5  6  2  0  0  0  0
  6  7  1  0  0  0  0
  6 36  1  0  0  0  0
  7  8  1  0  0  0  0
  7 35  2  0  0  0  0
  8  9  1  0  0  0  0
  8 70  1  0  0  0  0
  9 10  2  0  0  0  0
  9 11  1  0  0  0  0
 11 16  2  0  0  0  0
 11 12  1  0  0  0  0
 12 13  2  0  0  0  0
 12 46  1  0  0  0  0
 13 14  1  0  0  0  0
 13 21  1  0  0  0  0
 14 15  2  0  0  0  0
 14 47  1  0  0  0  0
 15 16  1  0  0  0  0
 15 48  1  0  0  0  0
 16 17  1  0  0  0  0
 17 18  1  0  0  0  0
 18 19  1  0  0  0  0
 18 49  1  0  0  0  0
 18 50  1  0  0  0  0
 19 20  1  0  0  0  0
 19 51  1  0  0  0  0
 19 52  1  0  0  0  0
 20 53  1  0  0  0  0
 20 54  1  0  0  0  0
 20 55  1  0  0  0  0
 21 22  2  0  0  0  0
 21 23  2  0  0  0  0
 21 24  1  0  0  0  0
 24 29  1  0  0  0  0
 24 25  1  0  0  0  0
 25 26  1  0  0  0  0
 25 56  1  0  0  0  0
 25 57  1  0  0  0  0
 26 27  1  0  0  0  0
 26 58  1  0  0  0  0
 26 59  1  0  0  0  0
 27 28  1  0  0  0  0
 27 30  1  0  0  0  0
 27 69  1  0  0  0  0
 28 29  1  0  0  0  0
 28 60  1  0  0  0  0
 28 61  1  0  0  0  0
 29 62  1  0  0  0  0
 29 63  1  0  0  0  0
 30 31  1  0  0  0  0
 30 64  1  0  0  0  0
 30 65  1  0  0  0  0
 31 32  2  0  0  0  0
 31 33  1  0  0  0  0
 31 34  1  0  0  0  0
 36 37  1  0  0  0  0
 36 38  1  0  0  0  0
 38 66  1  0  0  0  0
 38 67  1  0  0  0  0
 38 68  1  0  0  0  0
M  CHG  3  27   1  33  -1  34  -1
M  END
$$$$
CHEMBL63548
  -OEChem-07121202283D

 70 73  0     0  0  0  0  0  0999 V2000
   -0.0187    1.5258    0.0104 C   0  0  0  0  0  0  0  0  0  0  0  0
    0.0021   -0.0041    0.0020 C   0  0  0  0  0  0  0  0  0  0  0  0
   -1.4333   -0.5336    0.0129 C   0  0  0  0  0  0  0  0  0  0  0  0
   -1.4129   -2.0405    0.0046 C   0  0  0  0  0  0  0  0  0  0  0  0
   -1.4071   -2.8493   -1.1371 C   0  0  0  0  0  0  0  0  0  0  0  0
   -1.3871   -4.1737   -0.7055 C   0  0  0  0  0  0  0  0  0  0  0  0
   -1.3774   -5.2332   -1.7158 C   0  0  0  0  0  0  0  0  0  0  0  0
   -1.3880   -4.8868   -3.0129 N   0  0  0  0  0  0  0  0  0  0  0  0
   -1.4068   -3.6251   -3.3867 C   0  0  0  0  0  0  0  0  0  0  0  0
   -1.4174   -2.5975   -2.4964 N   0  0  0  0  0  0  0  0  0  0  0  0
   -1.4176   -3.3134   -4.8285 C   0  0  0  0  0  0  0  0  0  0  0  0
   -1.4318   -1.9847   -5.2600 C   0  0  0  0  0  0  0  0  0  0  0  0
   -1.4419   -1.7003   -6.6083 C   0  0  0  0  0  0  0  0  0  0  0  0
   -1.4385   -2.7264   -7.5391 C   0  0  0  0  0  0  0  0  0  0  0  0
   -1.4249   -4.0440   -7.1262 C   0  0  0  0  0  0  0  0  0  0  0  0
   -1.4079   -4.3485   -5.7734 C   0  0  0  0  0  0  0  0  0  0  0  0
   -1.3879   -5.6427   -5.3664 O   0  0  0  0  0  0  0  0  0  0  0  0
   -1.3790   -6.6435   -6.3863 C   0  0  0  0  0  0  0  0  0  0  0  0
   -1.3566   -8.0301   -5.7401 C   0  0  0  0  0  0  0  0  0  0  0  0
   -1.3471   -9.1017   -6.8321 C   0  0  0  0  0  0  0  0  0  0  0  0
   -1.4599   -0.0240   -7.1509 S   0  0  0  0  0  0  0  0  0  0  0  0
   -2.0180   -0.0261   -8.4577 O   0  0  0  0  0  0  0  0  0  0  0  0
   -2.0116    0.7410   -6.0881 O   0  0  0  0  0  0  0  0  0  0  0  0
    0.1170    0.4558   -7.3106 N   0  0  0  0  0  0  0  0  0  0  0  0
    0.8425    1.0580   -6.1813 C   0  0  0  0  0  0  0  0  0  0  0  0
    2.1781    0.3255   -6.0160 C   0  0  0  0  0  0  0  0  0  0  0  0
    2.9098    0.3504   -7.2888 N   0  3  0  0  0  0  0  0  0  0  0  0
    2.1684   -0.4048   -8.3067 C   0  0  0  0  0  0  0  0  0  0  0  0
    0.8340    0.2864   -8.5839 C   0  0  0  0  0  0  0  0  0  0  0  0
    4.2352   -0.2546   -7.1016 C   0  0  0  0  0  0  0  0  0  0  0  0
    5.3005    0.1646   -8.5203 P   0  0  0  0  0  0  0  0  0  0  0  0
    4.5961   -0.2731   -9.8495 O   0  0  0  0  0  0  0  0  0  0  0  0
    5.5506    1.7110   -8.5466 O   0  5  0  0  0  0  0  0  0  0  0  0
    6.6701   -0.5837   -8.3841 O   0  5  0  0  0  0  0  0  0  0  0  0
   -1.3595   -6.4083   -1.3854 O   0  0  0  0  0  0  0  0  0  0  0  0
   -1.3812   -4.1503    0.6589 N   0  0  0  0  0  0  0  0  0  0  0  0
   -1.3919   -2.8081    1.0635 N   0  0  0  0  0  0  0  0  0  0  0  0
   -1.3613   -5.3186    1.5427 C   0  0  0  0  0  0  0  0  0  0  0  0
    1.0039    1.9031    0.0027 H   0  0  0  0  0  0  0  0  0  0  0  0
   -0.5459    1.8868   -0.8726 H   0  0  0  0  0  0  0  0  0  0  0  0
   -0.5289    1.8773    0.9072 H   0  0  0  0  0  0  0  0  0  0  0  0
    0.5123   -0.3556   -0.8948 H   0  0  0  0  0  0  0  0  0  0  0  0
    0.5293   -0.3651    0.8851 H   0  0  0  0  0  0  0  0  0  0  0  0
   -1.9435   -0.1821    0.9097 H   0  0  0  0  0  0  0  0  0  0  0  0
   -1.9605   -0.1726   -0.8702 H   0  0  0  0  0  0  0  0  0  0  0  0
   -1.4353   -1.1817   -4.5379 H   0  0  0  0  0  0  0  0  0  0  0  0
   -1.4468   -2.4944   -8.5939 H   0  0  0  0  0  0  0  0  0  0  0  0
   -1.4231   -4.8384   -7.8579 H   0  0  0  0  0  0  0  0  0  0  0  0
   -2.2735   -6.5436   -7.0012 H   0  0  0  0  0  0  0  0  0  0  0  0
   -0.4937   -6.5189   -7.0099 H   0  0  0  0  0  0  0  0  0  0  0  0
   -0.4622   -8.1300   -5.1252 H   0  0  0  0  0  0  0  0  0  0  0  0
   -2.2419   -8.1547   -5.1165 H   0  0  0  0  0  0  0  0  0  0  0  0
   -1.3311  -10.0895   -6.3717 H   0  0  0  0  0  0  0  0  0  0  0  0
   -2.2416   -9.0018   -7.4470 H   0  0  0  0  0  0  0  0  0  0  0  0
   -0.4618   -8.9771   -7.4557 H   0  0  0  0  0  0  0  0  0  0  0  0
    1.0261    2.1130   -6.3847 H   0  0  0  0  0  0  0  0  0  0  0  0
    0.2529    0.9547   -5.2704 H   0  0  0  0  0  0  0  0  0  0  0  0
    2.7708    0.8197   -5.2463 H   0  0  0  0  0  0  0  0  0  0  0  0
    1.9920   -0.7081   -5.7239 H   0  0  0  0  0  0  0  0  0  0  0  0
    2.7540   -0.4486   -9.2250 H   0  0  0  0  0  0  0  0  0  0  0  0
    1.9826   -1.4162   -7.9453 H   0  0  0  0  0  0  0  0  0  0  0  0
    0.2388   -0.3267   -9.2606 H   0  0  0  0  0  0  0  0  0  0  0  0
    1.0167    1.2622   -9.0340 H   0  0  0  0  0  0  0  0  0  0  0  0
    4.6834    0.1288   -6.1849 H   0  0  0  0  0  0  0  0  0  0  0  0
    4.1336   -1.3375   -7.0310 H   0  0  0  0  0  0  0  0  0  0  0  0
   -0.3288   -5.5944    1.7572 H   0  0  0  0  0  0  0  0  0  0  0  0
   -1.8742   -5.0785    2.4740 H   0  0  0  0  0  0  0  0  0  0  0  0
   -1.8661   -6.1522    1.0544 H   0  0  0  0  0  0  0  0  0  0  0  0
    3.0190    1.3060   -7.5939 H   0  0  0  0  0  0  0  0  0  0  0  0
   -1.4316   -1.6821   -2.8169 H   0  0  0  0  0  0  0  0  0  0  0  0
  1  2  1  0  0  0  0
  1 39  1  0  0  0  0
  1 40  1  0  0  0  0
  1 41  1  0  0  0  0
  2  3  1  0  0  0  0
  2 42  1  0  0  0  0
  2 43  1  0  0  0  0
  3  4  1  0  0  0  0
  3 44  1  0  0  0  0
  3 45  1  0  0  0  0
  4 37  2  0  0  0  0
  4  5  1  0  0  0  0
  5 10  1  0  0  0  0
  5  6  2  0  0  0  0
  6  7  1  0  0  0  0
  6 36  1  0  0  0  0
  7  8  1  0  0  0  0
  7 35  2  0  0  0  0
  8  9  2  0  0  0  0
  9 10  1  0  0  0  0
  9 11  1  0  0  0  0
 10 70  1  0  0  0  0
 11 16  2  0  0  0  0
 11 12  1  0  0  0  0
 12 13  2  0  0  0  0
 12 46  1  0  0  0  0
 13 14  1  0  0  0  0
 13 21  1  0  0  0  0
 14 15  2  0  0  0  0
 14 47  1  0  0  0  0
 15 16  1  0  0  0  0
 15 48  1  0  0  0  0
 16 17  1  0  0  0  0
 17 18  1  0  0  0  0
 18 19  1  0  0  0  0
 18 49  1  0  0  0  0
 18 50  1  0  0  0  0
 19 20  1  0  0  0  0
 19 51  1  0  0  0  0
 19 52  1  0  0  0  0
 20 53  1  0  0  0  0
 20 54  1  0  0  0  0
 20 55  1  0  0  0  0
 21 22  2  0  0  0  0
 21 23  2  0  0  0  0
 21 24  1  0  0  0  0
 24 29  1  0  0  0  0
 24 25  1  0  0  0  0
 25 26  1  0  0  0  0
 25 56  1  0  0  0  0
 25 57  1  0  0  0  0
 26 27  1  0  0  0  0
 26 58  1  0  0  0  0
 26 59  1  0  0  0  0
 27 28  1  0  0  0  0
 27 30  1  0  0  0  0
 27 69  1  0  0  0  0
 28 29  1  0  0  0  0
 28 60  1  0  0  0  0
 28 61  1  0  0  0  0
 29 62  1  0  0  0  0
 29 63  1  0  0  0  0
 30 31  1  0  0  0  0
 30 64  1  0  0  0  0
 30 65  1  0  0  0  0
 31 32  2  0  0  0  0
 31 33  1  0  0  0  0
 31 34  1  0  0  0  0
 36 37  1  0  0  0  0
 36 38  1  0  0  0  0
 38 66  1  0  0  0  0
 38 67  1  0  0  0  0
 38 68  1  0  0  0  0
M  CHG  3  27   1  33  -1  34  -1
M  END
$$$$
CHEMBL63548
  -OEChem-07121202283D

 69 72  0     0  0  0  0  0  0999 V2000
   -0.0187    1.5258    0.0104 C   0  0  0  0  0  0  0  0  0  0  0  0
    0.0021   -0.0041    0.0020 C   0  0  0  0  0  0  0  0  0  0  0  0
   -1.4333   -0.5336    0.0129 C   0  0  0  0  0  0  0  0  0  0  0  0
   -1.4129   -2.0405    0.0046 C   0  0  0  0  0  0  0  0  0  0  0  0
   -1.4070   -2.8569   -1.1475 C   0  0  0  0  0  0  0  0  0  0  0  0
   -1.3863   -4.1920   -0.7014 C   0  0  0  0  0  0  0  0  0  0  0  0
   -1.3766   -5.2165   -1.6565 C   0  0  0  0  0  0  0  0  0  0  0  0
   -1.3873   -4.8893   -2.9402 N   0  0  0  0  0  0  0  0  0  0  0  0
   -1.4068   -3.6162   -3.3267 C   0  0  0  0  0  0  0  0  0  0  0  0
   -1.4172   -2.6162   -2.4630 N   0  0  0  0  0  0  0  0  0  0  0  0
   -1.4175   -3.3090   -4.7764 C   0  0  0  0  0  0  0  0  0  0  0  0
   -1.4321   -1.9850   -5.2116 C   0  0  0  0  0  0  0  0  0  0  0  0
   -1.4421   -1.7045   -6.5623 C   0  0  0  0  0  0  0  0  0  0  0  0
   -1.4375   -2.7334   -7.4883 C   0  0  0  0  0  0  0  0  0  0  0  0
   -1.4230   -4.0494   -7.0685 C   0  0  0  0  0  0  0  0  0  0  0  0
   -1.4070   -4.3463   -5.7145 C   0  0  0  0  0  0  0  0  0  0  0  0
   -1.3871   -5.6394   -5.3005 O   0  0  0  0  0  0  0  0  0  0  0  0
   -1.3774   -6.6454   -6.3153 C   0  0  0  0  0  0  0  0  0  0  0  0
   -1.3552   -8.0287   -5.6620 C   0  0  0  0  0  0  0  0  0  0  0  0
   -1.3448   -9.1058   -6.7485 C   0  0  0  0  0  0  0  0  0  0  0  0
   -1.4612   -0.0301   -7.1108 S   0  0  0  0  0  0  0  0  0  0  0  0
   -2.0190   -0.0373   -8.4177 O   0  0  0  0  0  0  0  0  0  0  0  0
   -2.0139    0.7382   -6.0508 O   0  0  0  0  0  0  0  0  0  0  0  0
    0.1153    0.4505   -7.2716 N   0  0  0  0  0  0  0  0  0  0  0  0
    0.8399    1.0572   -6.1442 C   0  0  0  0  0  0  0  0  0  0  0  0
    2.1761    0.3264   -5.9759 C   0  0  0  0  0  0  0  0  0  0  0  0
    2.9081    0.3474   -7.2486 N   0  3  0  0  0  0  0  0  0  0  0  0
    2.1677   -0.4119   -8.2641 C   0  0  0  0  0  0  0  0  0  0  0  0
    0.8329    0.2772   -8.5441 C   0  0  0  0  0  0  0  0  0  0  0  0
    4.2341   -0.2558   -7.0588 C   0  0  0  0  0  0  0  0  0  0  0  0
    5.2994    0.1593   -8.4787 P   0  0  0  0  0  0  0  0  0  0  0  0
    4.5958   -0.2836   -9.8066 O   0  0  0  0  0  0  0  0  0  0  0  0
    5.5483    1.7057   -8.5103 O   0  5  0  0  0  0  0  0  0  0  0  0
    6.6696   -0.5875   -8.3394 O   0  5  0  0  0  0  0  0  0  0  0  0
   -1.3563   -6.5163   -1.2751 O   0  5  0  0  0  0  0  0  0  0  0  0
   -1.3804   -4.1504    0.6672 N   0  0  0  0  0  0  0  0  0  0  0  0
   -1.3920   -2.8054    1.0596 N   0  0  0  0  0  0  0  0  0  0  0  0
   -1.3605   -5.3088    1.5638 C   0  0  0  0  0  0  0  0  0  0  0  0
    1.0039    1.9031    0.0027 H   0  0  0  0  0  0  0  0  0  0  0  0
   -0.5459    1.8868   -0.8726 H   0  0  0  0  0  0  0  0  0  0  0  0
   -0.5289    1.8773    0.9072 H   0  0  0  0  0  0  0  0  0  0  0  0
    0.5123   -0.3556   -0.8948 H   0  0  0  0  0  0  0  0  0  0  0  0
    0.5293   -0.3651    0.8851 H   0  0  0  0  0  0  0  0  0  0  0  0
   -1.9435   -0.1821    0.9097 H   0  0  0  0  0  0  0  0  0  0  0  0
   -1.9605   -0.1726   -0.8702 H   0  0  0  0  0  0  0  0  0  0  0  0
   -1.4361   -1.1795   -4.4922 H   0  0  0  0  0  0  0  0  0  0  0  0
   -1.4457   -2.5062   -8.5441 H   0  0  0  0  0  0  0  0  0  0  0  0
   -1.4198   -4.8476   -7.7960 H   0  0  0  0  0  0  0  0  0  0  0  0
   -2.2716   -6.5488   -6.9312 H   0  0  0  0  0  0  0  0  0  0  0  0
   -0.4918   -6.5238   -6.9390 H   0  0  0  0  0  0  0  0  0  0  0  0
   -0.4610   -8.1253   -5.0461 H   0  0  0  0  0  0  0  0  0  0  0  0
   -2.2408   -8.1502   -5.0383 H   0  0  0  0  0  0  0  0  0  0  0  0
   -2.2390   -9.0092   -7.3644 H   0  0  0  0  0  0  0  0  0  0  0  0
   -0.4592   -8.9843   -7.3722 H   0  0  0  0  0  0  0  0  0  0  0  0
   -1.3290  -10.0913   -6.2831 H   0  0  0  0  0  0  0  0  0  0  0  0
    1.0227    2.1116   -6.3512 H   0  0  0  0  0  0  0  0  0  0  0  0
    0.2501    0.9567   -5.2331 H   0  0  0  0  0  0  0  0  0  0  0  0
    2.7682    0.8238   -5.2077 H   0  0  0  0  0  0  0  0  0  0  0  0
    1.9908   -0.7063   -5.6802 H   0  0  0  0  0  0  0  0  0  0  0  0
    2.7536   -0.4585   -9.1820 H   0  0  0  0  0  0  0  0  0  0  0  0
    1.9827   -1.4222   -7.8992 H   0  0  0  0  0  0  0  0  0  0  0  0
    0.2384   -0.3388   -9.2188 H   0  0  0  0  0  0  0  0  0  0  0  0
    1.0149    1.2515   -8.9976 H   0  0  0  0  0  0  0  0  0  0  0  0
    4.6816    0.1312   -6.1434 H   0  0  0  0  0  0  0  0  0  0  0  0
    4.1333   -1.3386   -6.9844 H   0  0  0  0  0  0  0  0  0  0  0  0
   -0.3280   -5.5822    1.7813 H   0  0  0  0  0  0  0  0  0  0  0  0
   -1.8733   -5.0584    2.4924 H   0  0  0  0  0  0  0  0  0  0  0  0
   -1.8653   -6.1477    1.0848 H   0  0  0  0  0  0  0  0  0  0  0  0
    3.0167    1.3020   -7.5570 H   0  0  0  0  0  0  0  0  0  0  0  0
  1  2  1  0  0  0  0
  1 39  1  0  0  0  0
  1 40  1  0  0  0  0
  1 41  1  0  0  0  0
  2  3  1  0  0  0  0
  2 42  1  0  0  0  0
  2 43  1  0  0  0  0
  3  4  1  0  0  0  0
  3 44  1  0  0  0  0
  3 45  1  0  0  0  0
  4 37  2  0  0  0  0
  4  5  1  0  0  0  0
  5 10  2  0  0  0  0
  5  6  1  0  0  0  0
  6  7  2  0  0  0  0
  6 36  1  0  0  0  0
  7  8  1  0  0  0  0
  7 35  1  0  0  0  0
  8  9  2  0  0  0  0
  9 10  1  0  0  0  0
  9 11  1  0  0  0  0
 11 16  2  0  0  0  0
 11 12  1  0  0  0  0
 12 13  2  0  0  0  0
 12 46  1  0  0  0  0
 13 14  1  0  0  0  0
 13 21  1  0  0  0  0
 14 15  2  0  0  0  0
 14 47  1  0  0  0  0
 15 16  1  0  0  0  0
 15 48  1  0  0  0  0
 16 17  1  0  0  0  0
 17 18  1  0  0  0  0
 18 19  1  0  0  0  0
 18 49  1  0  0  0  0
 18 50  1  0  0  0  0
 19 20  1  0  0  0  0
 19 51  1  0  0  0  0
 19 52  1  0  0  0  0
 20 53  1  0  0  0  0
 20 54  1  0  0  0  0
 20 55  1  0  0  0  0
 21 22  2  0  0  0  0
 21 23  2  0  0  0  0
 21 24  1  0  0  0  0
 24 29  1  0  0  0  0
 24 25  1  0  0  0  0
 25 26  1  0  0  0  0
 25 56  1  0  0  0  0
 25 57  1  0  0  0  0
 26 27  1  0  0  0  0
 26 58  1  0  0  0  0
 26 59  1  0  0  0  0
 27 28  1  0  0  0  0
 27 30  1  0  0  0  0
 27 69  1  0  0  0  0
 28 29  1  0  0  0  0
 28 60  1  0  0  0  0
 28 61  1  0  0  0  0
 29 62  1  0  0  0  0
 29 63  1  0  0  0  0
 30 31  1  0  0  0  0
 30 64  1  0  0  0  0
 30 65  1  0  0  0  0
 31 32  2  0  0  0  0
 31 33  1  0  0  0  0
 31 34  1  0  0  0  0
 36 37  1  0  0  0  0
 36 38  1  0  0  0  0
 38 66  1  0  0  0  0
 38 67  1  0  0  0  0
 38 68  1  0  0  0  0
M  CHG  4  27   1  33  -1  34  -1  35  -1
M  END
$$$$
CHEMBL383202
  -OEChem-07121202283D

 59 62  0     0  0  0  0  0  0999 V2000
   -0.0187    1.5258    0.0104 C   0  0  0  0  0  0  0  0  0  0  0  0
    0.0021   -0.0041    0.0020 C   0  0  0  0  0  0  0  0  0  0  0  0
    0.7182   -0.4975   -1.2568 C   0  0  0  0  0  0  0  0  0  0  0  0
    0.7390   -2.0273   -1.2652 C   0  0  0  0  0  0  0  0  0  0  0  0
    1.4078   -2.4882   -2.4409 O   0  0  0  0  0  0  0  0  0  0  0  0
    1.5132   -3.8277   -2.6027 C   0  0  0  0  0  0  0  0  0  0  0  0
    2.1650   -4.3399   -3.7355 C   0  0  0  0  0  0  0  0  0  0  0  0
    2.2667   -5.7190   -3.8902 C   0  0  0  0  0  0  0  0  0  0  0  0
    1.7088   -6.5407   -2.8991 C   0  0  0  0  0  0  0  0  0  0  0  0
    1.0760   -5.9476   -1.8009 C   0  0  0  0  0  0  0  0  0  0  0  0
    1.0051   -4.6384   -1.6881 N   0  0  0  0  0  0  0  0  0  0  0  0
    1.7875   -8.0033   -3.0130 C   0  0  0  0  0  0  0  0  0  0  0  0
    2.3376   -8.5084   -3.9686 O   0  0  0  0  0  0  0  0  0  0  0  0
    1.1847   -8.8759   -1.9424 C   0  0  0  0  0  0  0  0  0  0  0  0
    2.7359   -3.4254   -4.7518 C   0  0  0  0  0  0  0  0  0  0  0  0
    3.3315   -3.9594   -5.7966 N   0  0  0  0  0  0  0  0  0  0  0  0
    3.8672   -3.1835   -6.7504 C   0  0  0  0  0  0  0  0  0  0  0  0
    4.5421   -3.3559   -7.9392 C   0  0  0  0  0  0  0  0  0  0  0  0
    4.8073   -2.1278   -8.4208 N   0  0  0  0  0  0  0  0  0  0  0  0
    4.3628   -1.2017   -7.6468 N   0  0  0  0  0  0  0  0  0  0  0  0
    3.7701   -1.7187   -6.5954 C   0  0  0  0  0  0  0  0  0  0  0  0
    3.0903   -1.2211   -5.4016 C   0  0  0  0  0  0  0  0  0  0  0  0
    2.6091   -2.1127   -4.5529 N   0  0  0  0  0  0  0  0  0  0  0  0
    2.9541    0.1056   -5.1753 O   0  5  0  0  0  0  0  0  0  0  0  0
    5.5181   -1.8756   -9.6767 C   0  0  0  0  0  0  0  0  0  0  0  0
    4.5261   -1.7972  -10.8084 C   0  0  0  0  0  0  0  0  0  0  0  0
    4.1163   -2.8031  -11.5317 N   0  0  0  0  0  0  0  0  0  0  0  0
    3.2364   -2.3630  -12.4434 C   0  0  0  0  0  0  0  0  0  0  0  0
    3.0956   -1.0339  -12.2787 C   0  0  0  0  0  0  0  0  0  0  0  0
    3.9094   -0.6753  -11.2381 N   0  0  0  0  0  0  0  0  0  0  0  0
    4.0816    0.6741  -10.6942 C   0  0  0  0  0  0  0  0  0  0  0  0
    4.9133   -4.6694   -8.5779 C   0  0  0  0  0  0  0  0  0  0  0  0
    6.2936   -5.1054   -8.0823 C   0  0  0  0  0  0  0  0  0  0  0  0
    1.0039    1.9031    0.0027 H   0  0  0  0  0  0  0  0  0  0  0  0
   -0.5459    1.8868   -0.8726 H   0  0  0  0  0  0  0  0  0  0  0  0
   -0.5289    1.8773    0.9072 H   0  0  0  0  0  0  0  0  0  0  0  0
    0.5293   -0.3651    0.8851 H   0  0  0  0  0  0  0  0  0  0  0  0
   -1.0205   -0.3814    0.0098 H   0  0  0  0  0  0  0  0  0  0  0  0
    0.1910   -0.1364   -2.1398 H   0  0  0  0  0  0  0  0  0  0  0  0
    1.7408   -0.1202   -1.2645 H   0  0  0  0  0  0  0  0  0  0  0  0
    1.2661   -2.3884   -0.3821 H   0  0  0  0  0  0  0  0  0  0  0  0
   -0.2836   -2.4046   -1.2575 H   0  0  0  0  0  0  0  0  0  0  0  0
    2.7616   -6.1455   -4.7503 H   0  0  0  0  0  0  0  0  0  0  0  0
    0.6435   -6.5726   -1.0336 H   0  0  0  0  0  0  0  0  0  0  0  0
    0.7384   -8.2485   -1.1708 H   0  0  0  0  0  0  0  0  0  0  0  0
    0.4168   -9.5124   -2.3822 H   0  0  0  0  0  0  0  0  0  0  0  0
    1.9627   -9.4980   -1.4999 H   0  0  0  0  0  0  0  0  0  0  0  0
    6.0614   -0.9335   -9.6038 H   0  0  0  0  0  0  0  0  0  0  0  0
    6.2213   -2.6869   -9.8655 H   0  0  0  0  0  0  0  0  0  0  0  0
    2.7297   -2.9684  -13.1803 H   0  0  0  0  0  0  0  0  0  0  0  0
    2.4595   -0.3777  -12.8542 H   0  0  0  0  0  0  0  0  0  0  0  0
    4.8923    1.1774  -11.2209 H   0  0  0  0  0  0  0  0  0  0  0  0
    3.1583    1.2386  -10.8239 H   0  0  0  0  0  0  0  0  0  0  0  0
    4.3222    0.6101   -9.6330 H   0  0  0  0  0  0  0  0  0  0  0  0
    4.1754   -5.4253   -8.3093 H   0  0  0  0  0  0  0  0  0  0  0  0
    4.9364   -4.5529   -9.6614 H   0  0  0  0  0  0  0  0  0  0  0  0
    6.5621   -6.0555   -8.5442 H   0  0  0  0  0  0  0  0  0  0  0  0
    7.0316   -4.3495   -8.3508 H   0  0  0  0  0  0  0  0  0  0  0  0
    6.2706   -5.2219   -6.9988 H   0  0  0  0  0  0  0  0  0  0  0  0
  1  2  1  0  0  0  0
  1 34  1  0  0  0  0
  1 35  1  0  0  0  0
  1 36  1  0  0  0  0
  2  3  1  0  0  0  0
  2 37  1  0  0  0  0
  2 38  1  0  0  0  0
  3  4  1  0  0  0  0
  3 39  1  0  0  0  0
  3 40  1  0  0  0  0
  4  5  1  0  0  0  0
  4 41  1  0  0  0  0
  4 42  1  0  0  0  0
  5  6  1  0  0  0  0
  6 11  2  0  0  0  0
  6  7  1  0  0  0  0
  7  8  2  0  0  0  0
  7 15  1  0  0  0  0
  8  9  1  0  0  0  0
  8 43  1  0  0  0  0
  9 10  2  0  0  0  0
  9 12  1  0  0  0  0
 10 11  1  0  0  0  0
 10 44  1  0  0  0  0
 12 13  2  0  0  0  0
 12 14  1  0  0  0  0
 14 45  1  0  0  0  0
 14 46  1  0  0  0  0
 14 47  1  0  0  0  0
 15 23  1  0  0  0  0
 15 16  2  0  0  0  0
 16 17  1  0  0  0  0
 17 21  1  0  0  0  0
 17 18  2  0  0  0  0
 18 19  1  0  0  0  0
 18 32  1  0  0  0  0
 19 20  1  0  0  0  0
 19 25  1  0  0  0  0
 20 21  2  0  0  0  0
 21 22  1  0  0  0  0
 22 23  2  0  0  0  0
 22 24  1  0  0  0  0
 25 26  1  0  0  0  0
 25 48  1  0  0  0  0
 25 49  1  0  0  0  0
 26 30  1  0  0  0  0
 26 27  2  0  0  0  0
 27 28  1  0  0  0  0
 28 29  2  0  0  0  0
 28 50  1  0  0  0  0
 29 30  1  0  0  0  0
 29 51  1  0  0  0  0
 30 31  1  0  0  0  0
 31 52  1  0  0  0  0
 31 53  1  0  0  0  0
 31 54  1  0  0  0  0
 32 33  1  0  0  0  0
 32 55  1  0  0  0  0
 32 56  1  0  0  0  0
 33 57  1  0  0  0  0
 33 58  1  0  0  0  0
 33 59  1  0  0  0  0
M  CHG  1  24  -1
M  END
$$$$
CHEMBL383202
  -OEChem-07121202283D

 60 63  0     0  0  0  0  0  0999 V2000
    1.5866    3.5177   -0.4248 C   0  0  0  0  0  0  0  0  0  0  0  0
    1.6747    2.0231   -0.1098 C   0  0  0  0  0  0  0  0  0  0  0  0
    2.1258    1.2642   -1.3594 C   0  0  0  0  0  0  0  0  0  0  0  0
    2.2138   -0.2304   -1.0444 C   0  0  0  0  0  0  0  0  0  0  0  0
    2.6352   -0.9392   -2.2115 O   0  0  0  0  0  0  0  0  0  0  0  0
    2.7642   -2.2819   -2.1017 C   0  0  0  0  0  0  0  0  0  0  0  0
    3.1805   -3.0313   -3.2133 C   0  0  0  0  0  0  0  0  0  0  0  0
    3.3093   -4.4111   -3.0876 C   0  0  0  0  0  0  0  0  0  0  0  0
    3.0150   -4.9945   -1.8459 C   0  0  0  0  0  0  0  0  0  0  0  0
    2.6062   -4.1737   -0.7887 C   0  0  0  0  0  0  0  0  0  0  0  0
    2.5017   -2.8714   -0.9462 N   0  0  0  0  0  0  0  0  0  0  0  0
    3.1339   -6.4467   -1.6583 C   0  0  0  0  0  0  0  0  0  0  0  0
    3.4886   -7.1502   -2.5804 O   0  0  0  0  0  0  0  0  0  0  0  0
    2.8152   -7.0623   -0.3202 C   0  0  0  0  0  0  0  0  0  0  0  0
    3.4777   -2.3630   -4.5017 C   0  0  0  0  0  0  0  0  0  0  0  0
    3.8590   -3.1143   -5.5125 N   0  0  0  0  0  0  0  0  0  0  0  0
    4.1417   -2.5674   -6.7040 C   0  0  0  0  0  0  0  0  0  0  0  0
    4.5530   -2.9976   -7.9467 C   0  0  0  0  0  0  0  0  0  0  0  0
    4.6525   -1.9055   -8.7262 N   0  0  0  0  0  0  0  0  0  0  0  0
    4.3427   -0.8313   -8.0904 N   0  0  0  0  0  0  0  0  0  0  0  0
    4.0135   -1.1040   -6.8488 C   0  0  0  0  0  0  0  0  0  0  0  0
    3.5837   -0.3554   -5.6700 C   0  0  0  0  0  0  0  0  0  0  0  0
    3.3369   -1.0382   -4.5657 N   0  0  0  0  0  0  0  0  0  0  0  0
    3.4390    0.9891   -5.7088 O   0  5  0  0  0  0  0  0  0  0  0  0
    5.0651   -1.9362  -10.1316 C   0  0  0  0  0  0  0  0  0  0  0  0
    3.8435   -1.9274  -11.0140 C   0  0  0  0  0  0  0  0  0  0  0  0
    3.1598   -0.8697  -11.3559 N   0  3  0  0  0  0  0  0  0  0  0  0
    2.1410   -1.2381  -12.1467 C   0  0  0  0  0  0  0  0  0  0  0  0
    2.1955   -2.5749  -12.3008 C   0  0  0  0  0  0  0  0  0  0  0  0
    3.2785   -3.0120  -11.5868 N   0  0  0  0  0  0  0  0  0  0  0  0
    3.7372   -4.3979  -11.4645 C   0  0  0  0  0  0  0  0  0  0  0  0
    4.8379   -4.4201   -8.3547 C   0  0  0  0  0  0  0  0  0  0  0  0
    6.2708   -4.7859   -7.9624 C   0  0  0  0  0  0  0  0  0  0  0  0
    2.5654    3.8815   -0.7372 H   0  0  0  0  0  0  0  0  0  0  0  0
    0.8663    3.6781   -1.2271 H   0  0  0  0  0  0  0  0  0  0  0  0
    1.2652    4.0584    0.4654 H   0  0  0  0  0  0  0  0  0  0  0  0
    2.3949    1.8627    0.6925 H   0  0  0  0  0  0  0  0  0  0  0  0
    0.6958    1.6593    0.2026 H   0  0  0  0  0  0  0  0  0  0  0  0
    1.4055    1.4246   -2.1617 H   0  0  0  0  0  0  0  0  0  0  0  0
    3.1046    1.6280   -1.6718 H   0  0  0  0  0  0  0  0  0  0  0  0
    2.9341   -0.3908   -0.2421 H   0  0  0  0  0  0  0  0  0  0  0  0
    1.2350   -0.5942   -0.7319 H   0  0  0  0  0  0  0  0  0  0  0  0
    3.6270   -5.0168   -3.9234 H   0  0  0  0  0  0  0  0  0  0  0  0
    2.3773   -4.6145    0.1704 H   0  0  0  0  0  0  0  0  0  0  0  0
    1.7587   -7.3280   -0.2849 H   0  0  0  0  0  0  0  0  0  0  0  0
    3.4200   -7.9580   -0.1790 H   0  0  0  0  0  0  0  0  0  0  0  0
    3.0363   -6.3460    0.4712 H   0  0  0  0  0  0  0  0  0  0  0  0
    5.6772   -1.0611  -10.3497 H   0  0  0  0  0  0  0  0  0  0  0  0
    5.6435   -2.8405  -10.3208 H   0  0  0  0  0  0  0  0  0  0  0  0
    1.4058   -0.5784  -12.5834 H   0  0  0  0  0  0  0  0  0  0  0  0
    1.5175   -3.1844  -12.8798 H   0  0  0  0  0  0  0  0  0  0  0  0
    3.2747   -4.8580  -10.5912 H   0  0  0  0  0  0  0  0  0  0  0  0
    3.4569   -4.9538  -12.3592 H   0  0  0  0  0  0  0  0  0  0  0  0
    4.8212   -4.4133  -11.3519 H   0  0  0  0  0  0  0  0  0  0  0  0
    4.1410   -5.0893   -7.8503 H   0  0  0  0  0  0  0  0  0  0  0  0
    4.7201   -4.5191   -9.4338 H   0  0  0  0  0  0  0  0  0  0  0  0
    6.3886   -4.6869   -6.8834 H   0  0  0  0  0  0  0  0  0  0  0  0
    6.4769   -5.8148   -8.2576 H   0  0  0  0  0  0  0  0  0  0  0  0
    6.9677   -4.1167   -8.4669 H   0  0  0  0  0  0  0  0  0  0  0  0
    3.3572    0.0394  -11.0813 H   0  0  0  0  0  0  0  0  0  0  0  0
  1  2  1  0  0  0  0
  1 34  1  0  0  0  0
  1 35  1  0  0  0  0
  1 36  1  0  0  0  0
  2  3  1  0  0  0  0
  2 37  1  0  0  0  0
  2 38  1  0  0  0  0
  3  4  1  0  0  0  0
  3 39  1  0  0  0  0
  3 40  1  0  0  0  0
  4  5  1  0  0  0  0
  4 41  1  0  0  0  0
  4 42  1  0  0  0  0
  5  6  1  0  0  0  0
  6 11  2  0  0  0  0
  6  7  1  0  0  0  0
  7  8  2  0  0  0  0
  7 15  1  0  0  0  0
  8  9  1  0  0  0  0
  8 43  1  0  0  0  0
  9 10  2  0  0  0  0
  9 12  1  0  0  0  0
 10 11  1  0  0  0  0
 10 44  1  0  0  0  0
 12 13  2  0  0  0  0
 12 14  1  0  0  0  0
 14 45  1  0  0  0  0
 14 46  1  0  0  0  0
 14 47  1  0  0  0  0
 15 23  1  0  0  0  0
 15 16  2  0  0  0  0
 16 17  1  0  0  0  0
 17 21  1  0  0  0  0
 17 18  2  0  0  0  0
 18 19  1  0  0  0  0
 18 32  1  0  0  0  0
 19 20  1  0  0  0  0
 19 25  1  0  0  0  0
 20 21  2  0  0  0  0
 21 22  1  0  0  0  0
 22 23  2  0  0  0  0
 22 24  1  0  0  0  0
 25 26  1  0  0  0  0
 25 48  1  0  0  0  0
 25 49  1  0  0  0  0
 26 30  1  0  0  0  0
 26 27  2  0  0  0  0
 27 28  1  0  0  0  0
 27 60  1  0  0  0  0
 28 29  2  0  0  0  0
 28 50  1  0  0  0  0
 29 30  1  0  0  0  0
 29 51  1  0  0  0  0
 30 31  1  0  0  0  0
 31 52  1  0  0  0  0
 31 53  1  0  0  0  0
 31 54  1  0  0  0  0
 32 33  1  0  0  0  0
 32 55  1  0  0  0  0
 32 56  1  0  0  0  0
 33 57  1  0  0  0  0
 33 58  1  0  0  0  0
 33 59  1  0  0  0  0
M  CHG  2  24  -1  27   1
M  END
$$$$
CHEMBL383202
  -OEChem-07121202283D

 60 63  0     0  0  0  0  0  0999 V2000
   -0.0187    1.5258    0.0104 C   0  0  0  0  0  0  0  0  0  0  0  0
    0.0021   -0.0041    0.0020 C   0  0  0  0  0  0  0  0  0  0  0  0
    0.7421   -0.5109    1.2415 C   0  0  0  0  0  0  0  0  0  0  0  0
    0.7628   -2.0407    1.2331 C   0  0  0  0  0  0  0  0  0  0  0  0
    1.4540   -2.5141    2.3908 O   0  0  0  0  0  0  0  0  0  0  0  0
    1.5622   -3.8543    2.5361 C   0  0  0  0  0  0  0  0  0  0  0  0
    2.2266   -4.3803    3.6585 C   0  0  0  0  0  0  0  0  0  0  0  0
    2.3301   -5.7648    3.7951 C   0  0  0  0  0  0  0  0  0  0  0  0
    1.7628   -6.5726    2.8000 C   0  0  0  0  0  0  0  0  0  0  0  0
    1.1187   -5.9656    1.7148 C   0  0  0  0  0  0  0  0  0  0  0  0
    1.0368   -4.6558    1.6229 N   0  0  0  0  0  0  0  0  0  0  0  0
    1.8433   -8.0367    2.8940 C   0  0  0  0  0  0  0  0  0  0  0  0
    2.4034   -8.5539    3.8373 O   0  0  0  0  0  0  0  0  0  0  0  0
    1.2298   -8.8957    1.8184 C   0  0  0  0  0  0  0  0  0  0  0  0
    2.8054   -3.4822    4.6751 C   0  0  0  0  0  0  0  0  0  0  0  0
    3.4441   -4.0351    5.7418 N   0  0  0  0  0  0  0  0  0  0  0  0
    4.0017   -3.2221    6.7200 C   0  0  0  0  0  0  0  0  0  0  0  0
    4.6831   -3.4140    7.8741 C   0  0  0  0  0  0  0  0  0  0  0  0
    4.9547   -2.1900    8.3807 N   0  0  0  0  0  0  0  0  0  0  0  0
    4.4840   -1.2709    7.6117 N   0  0  0  0  0  0  0  0  0  0  0  0
    3.8874   -1.8111    6.5758 C   0  0  0  0  0  0  0  0  0  0  0  0
    3.1788   -1.3004    5.3879 C   0  0  0  0  0  0  0  0  0  0  0  0
    2.6852   -2.1827    4.5063 N   0  0  0  0  0  0  0  0  0  0  0  0
    3.0482   -0.1015    5.2084 O   0  0  0  0  0  0  0  0  0  0  0  0
    5.6813   -1.9445    9.6288 C   0  0  0  0  0  0  0  0  0  0  0  0
    7.1560   -1.8348    9.3384 C   0  0  0  0  0  0  0  0  0  0  0  0
    8.0053   -2.8256    9.3302 N   0  0  0  0  0  0  0  0  0  0  0  0
    9.2269   -2.3586    9.0324 C   0  0  0  0  0  0  0  0  0  0  0  0
    9.1309   -1.0280    8.8490 C   0  0  0  0  0  0  0  0  0  0  0  0
    7.8164   -0.6959    9.0378 N   0  0  0  0  0  0  0  0  0  0  0  0
    7.2352    0.6449    8.9357 C   0  0  0  0  0  0  0  0  0  0  0  0
    5.0659   -4.7400    8.4794 C   0  0  0  0  0  0  0  0  0  0  0  0
    3.9513   -5.2147    9.4140 C   0  0  0  0  0  0  0  0  0  0  0  0
    1.0039    1.9031    0.0027 H   0  0  0  0  0  0  0  0  0  0  0  0
   -0.5459    1.8868   -0.8726 H   0  0  0  0  0  0  0  0  0  0  0  0
   -0.5289    1.8773    0.9072 H   0  0  0  0  0  0  0  0  0  0  0  0
   -1.0205   -0.3814    0.0098 H   0  0  0  0  0  0  0  0  0  0  0  0
    0.5123   -0.3556   -0.8948 H   0  0  0  0  0  0  0  0  0  0  0  0
    1.7647   -0.1336    1.2338 H   0  0  0  0  0  0  0  0  0  0  0  0
    0.2319   -0.1594    2.1383 H   0  0  0  0  0  0  0  0  0  0  0  0
   -0.2598   -2.4180    1.2409 H   0  0  0  0  0  0  0  0  0  0  0  0
    1.2730   -2.3923    0.3363 H   0  0  0  0  0  0  0  0  0  0  0  0
    2.8338   -6.2023    4.6444 H   0  0  0  0  0  0  0  0  0  0  0  0
    0.6796   -6.5817    0.9440 H   0  0  0  0  0  0  0  0  0  0  0  0
    1.9692   -9.0873    1.0408 H   0  0  0  0  0  0  0  0  0  0  0  0
    0.9038   -9.8416    2.2508 H   0  0  0  0  0  0  0  0  0  0  0  0
    0.3729   -8.3794    1.3858 H   0  0  0  0  0  0  0  0  0  0  0  0
    5.3293   -1.0155   10.0774 H   0  0  0  0  0  0  0  0  0  0  0  0
    5.5073   -2.7700   10.3190 H   0  0  0  0  0  0  0  0  0  0  0  0
   10.1292   -2.9467    8.9534 H   0  0  0  0  0  0  0  0  0  0  0  0
    9.9356   -0.3531    8.5973 H   0  0  0  0  0  0  0  0  0  0  0  0
    7.2761    1.1338    9.9091 H   0  0  0  0  0  0  0  0  0  0  0  0
    7.7996    1.2313    8.2106 H   0  0  0  0  0  0  0  0  0  0  0  0
    6.1974    0.5674    8.6114 H   0  0  0  0  0  0  0  0  0  0  0  0
    5.2116   -5.4731    7.6861 H   0  0  0  0  0  0  0  0  0  0  0  0
    5.9909   -4.6278    9.0449 H   0  0  0  0  0  0  0  0  0  0  0  0
    4.2281   -6.1737    9.8518 H   0  0  0  0  0  0  0  0  0  0  0  0
    3.8056   -4.4816   10.2074 H   0  0  0  0  0  0  0  0  0  0  0  0
    3.0262   -5.3269    8.8485 H   0  0  0  0  0  0  0  0  0  0  0  0
    3.5100   -4.9998    5.8193 H   0  0  0  0  0  0  0  0  0  0  0  0
  1  2  1  0  0  0  0
  1 34  1  0  0  0  0
  1 35  1  0  0  0  0
  1 36  1  0  0  0  0
  2  3  1  0  0  0  0
  2 37  1  0  0  0  0
  2 38  1  0  0  0  0
  3  4  1  0  0  0  0
  3 39  1  0  0  0  0
  3 40  1  0  0  0  0
  4  5  1  0  0  0  0
  4 41  1  0  0  0  0
  4 42  1  0  0  0  0
  5  6  1  0  0  0  0
  6 11  2  0  0  0  0
  6  7  1  0  0  0  0
  7  8  2  0  0  0  0
  7 15  1  0  0  0  0
  8  9  1  0  0  0  0
  8 43  1  0  0  0  0
  9 10  2  0  0  0  0
  9 12  1  0  0  0  0
 10 11  1  0  0  0  0
 10 44  1  0  0  0  0
 12 13  2  0  0  0  0
 12 14  1  0  0  0  0
 14 45  1  0  0  0  0
 14 46  1  0  0  0  0
 14 47  1  0  0  0  0
 15 23  2  0  0  0  0
 15 16  1  0  0  0  0
 16 17  1  0  0  0  0
 16 60  1  0  0  0  0
 17 21  1  0  0  0  0
 17 18  2  0  0  0  0
 18 19  1  0  0  0  0
 18 32  1  0  0  0  0
 19 20  1  0  0  0  0
 19 25  1  0  0  0  0
 20 21  2  0  0  0  0
 21 22  1  0  0  0  0
 22 23  1  0  0  0  0
 22 24  2  0  0  0  0
 25 26  1  0  0  0  0
 25 48  1  0  0  0  0
 25 49  1  0  0  0  0
 26 30  1  0  0  0  0
 26 27  2  0  0  0  0
 27 28  1  0  0  0  0
 28 29  2  0  0  0  0
 28 50  1  0  0  0  0
 29 30  1  0  0  0  0
 29 51  1  0  0  0  0
 30 31  1  0  0  0  0
 31 52  1  0  0  0  0
 31 53  1  0  0  0  0
 31 54  1  0  0  0  0
 32 33  1  0  0  0  0
 32 55  1  0  0  0  0
 32 56  1  0  0  0  0
 33 57  1  0  0  0  0
 33 58  1  0  0  0  0
 33 59  1  0  0  0  0
M  END
$$$$
CHEMBL8198
  -OEChem-07121202283D

 63 66  0     0  0  0  0  0  0999 V2000
   -0.7240    0.7021    0.2203 C   0  0  0  0  0  0  0  0  0  0  0  0
   -0.3980   -0.7885    0.1070 C   0  0  0  0  0  0  0  0  0  0  0  0
    0.3974   -1.0239   -1.1006 N   0  0  0  0  0  0  0  0  0  0  0  0
   -0.0980   -1.3064   -2.3427 C   0  0  0  0  0  0  0  0  0  0  0  0
    1.0146   -1.4547   -3.1903 C   0  0  0  0  0  0  0  0  0  0  0  0
    2.1696   -1.2494   -2.4007 C   0  0  0  0  0  0  0  0  0  0  0  0
    1.7943   -0.9922   -1.1811 N   0  0  0  0  0  0  0  0  0  0  0  0
    0.8065   -1.7533   -4.5504 C   0  0  0  0  0  0  0  0  0  0  0  0
   -0.5200   -1.8896   -4.9966 C   0  0  0  0  0  0  0  0  0  0  0  0
   -1.5664   -1.7245   -4.0805 C   0  0  0  0  0  0  0  0  0  0  0  0
   -1.3331   -1.4465   -2.8197 N   0  0  0  0  0  0  0  0  0  0  0  0
   -0.8049   -2.2008   -6.4070 C   0  0  0  0  0  0  0  0  0  0  0  0
    0.1087   -2.4407   -7.1733 O   0  0  0  0  0  0  0  0  0  0  0  0
   -2.0779   -2.2199   -6.8491 N   0  0  0  0  0  0  0  0  0  0  0  0
   -2.3614   -2.5297   -8.2526 C   0  0  0  0  0  0  0  0  0  0  0  0
   -3.8723   -2.4850   -8.4897 C   0  0  0  0  0  0  0  0  0  0  0  0
   -4.1683   -2.8085   -9.9555 C   0  0  0  0  0  0  0  0  0  0  0  0
   -5.6150   -2.7658  -10.1824 N   0  0  0  0  0  0  0  0  0  0  0  0
   -6.5116   -3.9176  -10.0296 C   0  0  0  0  0  0  0  0  0  0  0  0
   -7.9343   -3.3230   -9.9368 C   0  0  0  0  0  0  0  0  0  0  0  0
   -7.7654   -1.9824  -10.6886 C   0  0  0  0  0  0  0  0  0  0  0  0
   -6.2926   -1.6652  -10.5519 C   0  0  0  0  0  0  0  0  0  0  0  0
   -5.7951   -0.5769  -10.7494 O   0  0  0  0  0  0  0  0  0  0  0  0
    1.8691   -1.9067   -5.4169 N   0  0  0  0  0  0  0  0  0  0  0  0
    3.2040   -2.2068   -4.8932 C   0  0  0  0  0  0  0  0  0  0  0  0
    4.1385   -2.5008   -6.0383 C   0  0  0  0  0  0  0  0  0  0  0  0
    4.2758   -3.7963   -6.5019 C   0  0  0  0  0  0  0  0  0  0  0  0
    5.1320   -4.0691   -7.5512 C   0  0  0  0  0  0  0  0  0  0  0  0
    5.8545   -3.0421   -8.1405 C   0  0  0  0  0  0  0  0  0  0  0  0
    5.7150   -1.7421   -7.6740 C   0  0  0  0  0  0  0  0  0  0  0  0
    4.8527   -1.4739   -6.6270 C   0  0  0  0  0  0  0  0  0  0  0  0
    6.6171   -0.4537   -8.4087 Cl  0  0  0  0  0  0  0  0  0  0  0  0
    6.6978   -3.3082   -9.1728 O   0  0  0  0  0  0  0  0  0  0  0  0
    6.7913   -4.6686   -9.5999 C   0  0  0  0  0  0  0  0  0  0  0  0
    0.2025    1.2733    0.2784 H   0  0  0  0  0  0  0  0  0  0  0  0
   -1.2911    1.0176   -0.6555 H   0  0  0  0  0  0  0  0  0  0  0  0
   -1.3158    0.8773    1.1188 H   0  0  0  0  0  0  0  0  0  0  0  0
    0.1691   -1.1040    0.9828 H   0  0  0  0  0  0  0  0  0  0  0  0
   -1.3245   -1.3597    0.0489 H   0  0  0  0  0  0  0  0  0  0  0  0
    3.1902   -1.2936   -2.7512 H   0  0  0  0  0  0  0  0  0  0  0  0
   -2.5867   -1.8283   -4.4189 H   0  0  0  0  0  0  0  0  0  0  0  0
   -2.8065   -2.0286   -6.2379 H   0  0  0  0  0  0  0  0  0  0  0  0
   -1.8714   -1.7960   -8.8927 H   0  0  0  0  0  0  0  0  0  0  0  0
   -1.9860   -3.5256   -8.4879 H   0  0  0  0  0  0  0  0  0  0  0  0
   -4.3623   -3.2187   -7.8495 H   0  0  0  0  0  0  0  0  0  0  0  0
   -4.2477   -1.4892   -8.2544 H   0  0  0  0  0  0  0  0  0  0  0  0
   -3.6783   -2.0749  -10.5956 H   0  0  0  0  0  0  0  0  0  0  0  0
   -3.7929   -3.8044  -10.1908 H   0  0  0  0  0  0  0  0  0  0  0  0
   -6.4330   -4.5744  -10.8960 H   0  0  0  0  0  0  0  0  0  0  0  0
   -6.2711   -4.4644   -9.1178 H   0  0  0  0  0  0  0  0  0  0  0  0
   -8.6585   -3.9638  -10.4398 H   0  0  0  0  0  0  0  0  0  0  0  0
   -8.2197   -3.1546   -8.8984 H   0  0  0  0  0  0  0  0  0  0  0  0
   -8.0393   -2.0962  -11.7375 H   0  0  0  0  0  0  0  0  0  0  0  0
   -8.3658   -1.2033  -10.2190 H   0  0  0  0  0  0  0  0  0  0  0  0
    1.7323   -1.8159   -6.3729 H   0  0  0  0  0  0  0  0  0  0  0  0
    3.5754   -1.3492   -4.3321 H   0  0  0  0  0  0  0  0  0  0  0  0
    3.1499   -3.0749   -4.2363 H   0  0  0  0  0  0  0  0  0  0  0  0
    3.7132   -4.5958   -6.0429 H   0  0  0  0  0  0  0  0  0  0  0  0
    5.2391   -5.0813   -7.9121 H   0  0  0  0  0  0  0  0  0  0  0  0
    4.7405   -0.4623   -6.2660 H   0  0  0  0  0  0  0  0  0  0  0  0
    7.1381   -5.2865   -8.7716 H   0  0  0  0  0  0  0  0  0  0  0  0
    5.8108   -5.0153   -9.9261 H   0  0  0  0  0  0  0  0  0  0  0  0
    7.4965   -4.7419  -10.4279 H   0  0  0  0  0  0  0  0  0  0  0  0
  1  2  1  0  0  0  0
  1 35  1  0  0  0  0
  1 36  1  0  0  0  0
  1 37  1  0  0  0  0
  2  3  1  0  0  0  0
  2 38  1  0  0  0  0
  2 39  1  0  0  0  0
  3  7  1  0  0  0  0
  3  4  1  0  0  0  0
  4 11  2  0  0  0  0
  4  5  1  0  0  0  0
  5  6  1  0  0  0  0
  5  8  2  0  0  0  0
  6  7  2  0  0  0  0
  6 40  1  0  0  0  0
  8  9  1  0  0  0  0
  8 24  1  0  0  0  0
  9 10  2  0  0  0  0
  9 12  1  0  0  0  0
 10 11  1  0  0  0  0
 10 41  1  0  0  0  0
 12 13  2  0  0  0  0
 12 14  1  0  0  0  0
 14 15  1  0  0  0  0
 14 42  1  0  0  0  0
 15 16  1  0  0  0  0
 15 43  1  0  0  0  0
 15 44  1  0  0  0  0
 16 17  1  0  0  0  0
 16 45  1  0  0  0  0
 16 46  1  0  0  0  0
 17 18  1  0  0  0  0
 17 47  1  0  0  0  0
 17 48  1  0  0  0  0
 18 22  1  0  0  0  0
 18 19  1  0  0  0  0
 19 20  1  0  0  0  0
 19 49  1  0  0  0  0
 19 50  1  0  0  0  0
 20 21  1  0  0  0  0
 20 51  1  0  0  0  0
 20 52  1  0  0  0  0
 21 22  1  0  0  0  0
 21 53  1  0  0  0  0
 21 54  1  0  0  0  0
 22 23  2  0  0  0  0
 24 25  1  0  0  0  0
 24 55  1  0  0  0  0
 25 26  1  0  0  0  0
 25 56  1  0  0  0  0
 25 57  1  0  0  0  0
 26 31  2  0  0  0  0
 26 27  1  0  0  0  0
 27 28  2  0  0  0  0
 27 58  1  0  0  0  0
 28 29  1  0  0  0  0
 28 59  1  0  0  0  0
 29 30  2  0  0  0  0
 29 33  1  0  0  0  0
 30 31  1  0  0  0  0
 30 32  1  0  0  0  0
 31 60  1  0  0  0  0
 33 34  1  0  0  0  0
 34 61  1  0  0  0  0
 34 62  1  0  0  0  0
 34 63  1  0  0  0  0
M  END
$$$$
CHEMBL208583
  -OEChem-07121202283D

 62 65  0     0  0  0  0  0  0999 V2000
   -0.0187    1.5258    0.0104 C   0  0  0  0  0  0  0  0  0  0  0  0
    0.0021   -0.0041    0.0020 C   0  0  0  0  0  0  0  0  0  0  0  0
    0.7421   -0.5109    1.2415 C   0  0  0  0  0  0  0  0  0  0  0  0
    0.7614   -1.9398    1.2337 O   0  0  0  0  0  0  0  0  0  0  0  0
    1.3826   -2.5515    2.2689 C   0  0  0  0  0  0  0  0  0  0  0  0
    1.4388   -3.9534    2.3128 C   0  0  0  0  0  0  0  0  0  0  0  0
    2.0803   -4.5703    3.3824 C   0  0  0  0  0  0  0  0  0  0  0  0
    2.6459   -3.7565    4.3756 C   0  0  0  0  0  0  0  0  0  0  0  0
    2.5447   -2.3660    4.2546 C   0  0  0  0  0  0  0  0  0  0  0  0
    1.9342   -1.8204    3.2243 N   0  0  0  0  0  0  0  0  0  0  0  0
    3.3344   -4.3557    5.5268 C   0  0  0  0  0  0  0  0  0  0  0  0
    3.4169   -5.5619    5.6235 O   0  0  0  0  0  0  0  0  0  0  0  0
    3.9381   -3.4717    6.5875 C   0  0  0  0  0  0  0  0  0  0  0  0
    0.8236   -4.7644    1.2362 C   0  0  0  0  0  0  0  0  0  0  0  0
    0.9011   -6.0746    1.3304 N   0  0  0  0  0  0  0  0  0  0  0  0
    0.3630   -6.8620    0.3874 C   0  0  0  0  0  0  0  0  0  0  0  0
    0.2415   -8.2121    0.1401 C   0  0  0  0  0  0  0  0  0  0  0  0
   -0.4331   -8.3391   -1.0171 N   0  0  0  0  0  0  0  0  0  0  0  0
   -0.7462   -7.1970   -1.5189 N   0  0  0  0  0  0  0  0  0  0  0  0
   -0.3161   -6.2195   -0.7549 C   0  0  0  0  0  0  0  0  0  0  0  0
   -0.3504   -4.7589   -0.7708 C   0  0  0  0  0  0  0  0  0  0  0  0
    0.2214   -4.1206    0.2353 N   0  0  0  0  0  0  0  0  0  0  0  0
   -0.9504   -4.0837   -1.7778 O   0  5  0  0  0  0  0  0  0  0  0  0
   -0.7705   -9.6252   -1.6324 C   0  0  0  0  0  0  0  0  0  0  0  0
   -0.6935   -9.6156   -3.1698 C   0  0  0  0  0  0  0  0  0  0  0  0
   -2.1209   -9.2273   -3.1401 N   0  3  0  0  0  0  0  0  0  0  0  0
   -2.2831   -9.8502   -1.8079 C   0  0  0  0  0  0  0  0  0  0  0  0
   -2.9167   -9.8888   -4.1828 C   0  0  0  0  0  0  0  0  0  0  0  0
   -4.3732   -9.4320   -4.0795 C   0  0  0  0  0  0  0  0  0  0  0  0
   -2.3623   -9.5178   -5.5597 C   0  0  0  0  0  0  0  0  0  0  0  0
    0.7651   -9.3326    1.0010 C   0  0  0  0  0  0  0  0  0  0  0  0
    2.1871   -9.6899    0.5639 C   0  0  0  0  0  0  0  0  0  0  0  0
    1.0039    1.9031    0.0027 H   0  0  0  0  0  0  0  0  0  0  0  0
   -0.5459    1.8868   -0.8726 H   0  0  0  0  0  0  0  0  0  0  0  0
   -0.5289    1.8773    0.9072 H   0  0  0  0  0  0  0  0  0  0  0  0
   -1.0205   -0.3814    0.0098 H   0  0  0  0  0  0  0  0  0  0  0  0
    0.5123   -0.3556   -0.8948 H   0  0  0  0  0  0  0  0  0  0  0  0
    1.7647   -0.1336    1.2338 H   0  0  0  0  0  0  0  0  0  0  0  0
    0.2319   -0.1594    2.1383 H   0  0  0  0  0  0  0  0  0  0  0  0
    2.1409   -5.6467    3.4466 H   0  0  0  0  0  0  0  0  0  0  0  0
    2.9769   -1.7321    5.0147 H   0  0  0  0  0  0  0  0  0  0  0  0
    3.7653   -2.4265    6.3310 H   0  0  0  0  0  0  0  0  0  0  0  0
    3.4755   -3.6910    7.5498 H   0  0  0  0  0  0  0  0  0  0  0  0
    5.0103   -3.6583    6.6489 H   0  0  0  0  0  0  0  0  0  0  0  0
   -0.2525  -10.4658   -1.1707 H   0  0  0  0  0  0  0  0  0  0  0  0
   -0.0368   -8.8441   -3.5718 H   0  0  0  0  0  0  0  0  0  0  0  0
   -0.5146  -10.5980   -3.6067 H   0  0  0  0  0  0  0  0  0  0  0  0
   -2.5692  -10.9013   -1.8464 H   0  0  0  0  0  0  0  0  0  0  0  0
   -2.8965   -9.2662   -1.1217 H   0  0  0  0  0  0  0  0  0  0  0  0
   -2.8643  -10.9693   -4.0492 H   0  0  0  0  0  0  0  0  0  0  0  0
   -4.4255   -8.3515   -4.2132 H   0  0  0  0  0  0  0  0  0  0  0  0
   -4.9637   -9.9228   -4.8532 H   0  0  0  0  0  0  0  0  0  0  0  0
   -4.7682   -9.6963   -3.0986 H   0  0  0  0  0  0  0  0  0  0  0  0
   -2.4146   -8.4373   -5.6934 H   0  0  0  0  0  0  0  0  0  0  0  0
   -1.3246   -9.8432   -5.6333 H   0  0  0  0  0  0  0  0  0  0  0  0
   -2.9527  -10.0086   -6.3334 H   0  0  0  0  0  0  0  0  0  0  0  0
    0.7744   -9.0156    2.0439 H   0  0  0  0  0  0  0  0  0  0  0  0
    0.1214  -10.2055    0.8924 H   0  0  0  0  0  0  0  0  0  0  0  0
    2.1778  -10.0069   -0.4790 H   0  0  0  0  0  0  0  0  0  0  0  0
    2.8308   -8.8170    0.6725 H   0  0  0  0  0  0  0  0  0  0  0  0
    2.5658  -10.5004    1.1866 H   0  0  0  0  0  0  0  0  0  0  0  0
   -2.2568   -8.2276   -3.1264 H   0  0  0  0  0  0  0  0  0  0  0  0
  1  2  1  0  0  0  0
  1 33  1  0  0  0  0
  1 34  1  0  0  0  0
  1 35  1  0  0  0  0
  2  3  1  0  0  0  0
  2 36  1  0  0  0  0
  2 37  1  0  0  0  0
  3  4  1  0  0  0  0
  3 38  1  0  0  0  0
  3 39  1  0  0  0  0
  4  5  1  0  0  0  0
  5 10  2  0  0  0  0
  5  6  1  0  0  0  0
  6  7  2  0  0  0  0
  6 14  1  0  0  0  0
  7  8  1  0  0  0  0
  7 40  1  0  0  0  0
  8  9  2  0  0  0  0
  8 11  1  0  0  0  0
  9 10  1  0  0  0  0
  9 41  1  0  0  0  0
 11 12  2  0  0  0  0
 11 13  1  0  0  0  0
 13 42  1  0  0  0  0
 13 43  1  0  0  0  0
 13 44  1  0  0  0  0
 14 22  1  0  0  0  0
 14 15  2  0  0  0  0
 15 16  1  0  0  0  0
 16 20  1  0  0  0  0
 16 17  2  0  0  0  0
 17 18  1  0  0  0  0
 17 31  1  0  0  0  0
 18 19  1  0  0  0  0
 18 24  1  0  0  0  0
 19 20  2  0  0  0  0
 20 21  1  0  0  0  0
 21 22  2  0  0  0  0
 21 23  1  0  0  0  0
 24 27  1  0  0  0  0
 24 25  1  0  0  0  0
 24 45  1  0  0  0  0
 25 26  1  0  0  0  0
 25 46  1  0  0  0  0
 25 47  1  0  0  0  0
 26 27  1  0  0  0  0
 26 28  1  0  0  0  0
 26 62  1  0  0  0  0
 27 48  1  0  0  0  0
 27 49  1  0  0  0  0
 28 29  1  0  0  0  0
 28 30  1  0  0  0  0
 28 50  1  0  0  0  0
 29 51  1  0  0  0  0
 29 52  1  0  0  0  0
 29 53  1  0  0  0  0
 30 54  1  0  0  0  0
 30 55  1  0  0  0  0
 30 56  1  0  0  0  0
 31 32  1  0  0  0  0
 31 57  1  0  0  0  0
 31 58  1  0  0  0  0
 32 59  1  0  0  0  0
 32 60  1  0  0  0  0
 32 61  1  0  0  0  0
M  CHG  2  23  -1  26   1
M  END
$$$$
CHEMBL208583
  -OEChem-07121202283D

 62 65  0     0  0  0  0  0  0999 V2000
   -0.0187    1.5258    0.0104 C   0  0  0  0  0  0  0  0  0  0  0  0
    0.0021   -0.0041    0.0020 C   0  0  0  0  0  0  0  0  0  0  0  0
   -1.4333   -0.5336    0.0129 C   0  0  0  0  0  0  0  0  0  0  0  0
   -1.4139   -1.9625    0.0050 O   0  0  0  0  0  0  0  0  0  0  0  0
   -2.6110   -2.5931    0.0131 C   0  0  0  0  0  0  0  0  0  0  0  0
   -2.6557   -3.9978    0.0117 C   0  0  0  0  0  0  0  0  0  0  0  0
   -3.8955   -4.6342    0.0201 C   0  0  0  0  0  0  0  0  0  0  0  0
   -5.0495   -3.8372    0.0295 C   0  0  0  0  0  0  0  0  0  0  0  0
   -4.9145   -2.4439    0.0302 C   0  0  0  0  0  0  0  0  0  0  0  0
   -3.7256   -1.8798    0.0275 N   0  0  0  0  0  0  0  0  0  0  0  0
   -6.3819   -4.4562    0.0381 C   0  0  0  0  0  0  0  0  0  0  0  0
   -6.4894   -5.6642    0.0370 O   0  0  0  0  0  0  0  0  0  0  0  0
   -7.6151   -3.5900    0.0482 C   0  0  0  0  0  0  0  0  0  0  0  0
   -1.4078   -4.7875    0.0011 C   0  0  0  0  0  0  0  0  0  0  0  0
   -0.2709   -4.1431   -0.0016 N   0  0  0  0  0  0  0  0  0  0  0  0
    0.9125   -4.8035   -0.0112 C   0  0  0  0  0  0  0  0  0  0  0  0
    2.2445   -4.4712   -0.0165 C   0  0  0  0  0  0  0  0  0  0  0  0
    2.9381   -5.6292   -0.0260 N   0  0  0  0  0  0  0  0  0  0  0  0
    2.1582   -6.6518   -0.0271 N   0  0  0  0  0  0  0  0  0  0  0  0
    0.9027   -6.2769   -0.0186 C   0  0  0  0  0  0  0  0  0  0  0  0
   -0.4077   -6.9421   -0.0158 C   0  0  0  0  0  0  0  0  0  0  0  0
   -1.5081   -6.1548    0.0003 N   0  0  0  0  0  0  0  0  0  0  0  0
   -0.4997   -8.1555   -0.0215 O   0  0  0  0  0  0  0  0  0  0  0  0
    4.4008   -5.7111   -0.0349 C   0  0  0  0  0  0  0  0  0  0  0  0
    4.9513   -6.8694   -0.8864 C   0  0  0  0  0  0  0  0  0  0  0  0
    4.8889   -7.6779    0.3513 N   0  0  0  0  0  0  0  0  0  0  0  0
    4.9870   -6.4551    1.1785 C   0  0  0  0  0  0  0  0  0  0  0  0
    6.0904   -8.5103    0.4975 C   0  0  0  0  0  0  0  0  0  0  0  0
    5.9894   -9.3297    1.7856 C   0  0  0  0  0  0  0  0  0  0  0  0
    6.2051   -9.4551   -0.7004 C   0  0  0  0  0  0  0  0  0  0  0  0
    2.8222   -3.0792   -0.0132 C   0  0  0  0  0  0  0  0  0  0  0  0
    3.0097   -2.6015   -1.4546 C   0  0  0  0  0  0  0  0  0  0  0  0
    1.0039    1.9031    0.0027 H   0  0  0  0  0  0  0  0  0  0  0  0
   -0.5459    1.8868   -0.8726 H   0  0  0  0  0  0  0  0  0  0  0  0
   -0.5289    1.8773    0.9072 H   0  0  0  0  0  0  0  0  0  0  0  0
    0.5123   -0.3556   -0.8948 H   0  0  0  0  0  0  0  0  0  0  0  0
    0.5293   -0.3651    0.8851 H   0  0  0  0  0  0  0  0  0  0  0  0
   -1.9435   -0.1821    0.9097 H   0  0  0  0  0  0  0  0  0  0  0  0
   -1.9605   -0.1726   -0.8702 H   0  0  0  0  0  0  0  0  0  0  0  0
   -3.9658   -5.7119    0.0190 H   0  0  0  0  0  0  0  0  0  0  0  0
   -5.7984   -1.8233    0.0374 H   0  0  0  0  0  0  0  0  0  0  0  0
   -7.3218   -2.5402    0.0476 H   0  0  0  0  0  0  0  0  0  0  0  0
   -8.2141   -3.8003   -0.8379 H   0  0  0  0  0  0  0  0  0  0  0  0
   -8.2014   -3.8030    0.9420 H   0  0  0  0  0  0  0  0  0  0  0  0
    4.8788   -4.7521   -0.2344 H   0  0  0  0  0  0  0  0  0  0  0  0
    4.2671   -7.2056   -1.6654 H   0  0  0  0  0  0  0  0  0  0  0  0
    5.9647   -6.7030   -1.2515 H   0  0  0  0  0  0  0  0  0  0  0  0
    6.0109   -6.1674    1.4173 H   0  0  0  0  0  0  0  0  0  0  0  0
    4.3314   -6.4601    2.0493 H   0  0  0  0  0  0  0  0  0  0  0  0
    6.9721   -7.8710    0.5418 H   0  0  0  0  0  0  0  0  0  0  0  0
    5.1077   -9.9690    1.7414 H   0  0  0  0  0  0  0  0  0  0  0  0
    6.8810   -9.9474    1.8941 H   0  0  0  0  0  0  0  0  0  0  0  0
    5.9077   -8.6566    2.6390 H   0  0  0  0  0  0  0  0  0  0  0  0
    5.3234  -10.0944   -0.7446 H   0  0  0  0  0  0  0  0  0  0  0  0
    6.2770   -8.8713   -1.6180 H   0  0  0  0  0  0  0  0  0  0  0  0
    7.0966  -10.0728   -0.5919 H   0  0  0  0  0  0  0  0  0  0  0  0
    2.1423   -2.4050    0.5075 H   0  0  0  0  0  0  0  0  0  0  0  0
    3.7863   -3.0871    0.4952 H   0  0  0  0  0  0  0  0  0  0  0  0
    3.6896   -3.2758   -1.9753 H   0  0  0  0  0  0  0  0  0  0  0  0
    2.0456   -2.5936   -1.9631 H   0  0  0  0  0  0  0  0  0  0  0  0
    3.4275   -1.5948   -1.4522 H   0  0  0  0  0  0  0  0  0  0  0  0
   -2.3864   -6.5665    0.0069 H   0  0  0  0  0  0  0  0  0  0  0  0
  1  2  1  0  0  0  0
  1 33  1  0  0  0  0
  1 34  1  0  0  0  0
  1 35  1  0  0  0  0
  2  3  1  0  0  0  0
  2 36  1  0  0  0  0
  2 37  1  0  0  0  0
  3  4  1  0  0  0  0
  3 38  1  0  0  0  0
  3 39  1  0  0  0  0
  4  5  1  0  0  0  0
  5 10  2  0  0  0  0
  5  6  1  0  0  0  0
  6  7  2  0  0  0  0
  6 14  1  0  0  0  0
  7  8  1  0  0  0  0
  7 40  1  0  0  0  0
  8  9  2  0  0  0  0
  8 11  1  0  0  0  0
  9 10  1  0  0  0  0
  9 41  1  0  0  0  0
 11 12  2  0  0  0  0
 11 13  1  0  0  0  0
 13 42  1  0  0  0  0
 13 43  1  0  0  0  0
 13 44  1  0  0  0  0
 14 22  1  0  0  0  0
 14 15  2  0  0  0  0
 15 16  1  0  0  0  0
 16 20  1  0  0  0  0
 16 17  2  0  0  0  0
 17 18  1  0  0  0  0
 17 31  1  0  0  0  0
 18 19  1  0  0  0  0
 18 24  1  0  0  0  0
 19 20  2  0  0  0  0
 20 21  1  0  0  0  0
 21 22  1  0  0  0  0
 21 23  2  0  0  0  0
 22 62  1  0  0  0  0
 24 27  1  0  0  0  0
 24 25  1  0  0  0  0
 24 45  1  0  0  0  0
 25 26  1  0  0  0  0
 25 46  1  0  0  0  0
 25 47  1  0  0  0  0
 26 27  1  0  0  0  0
 26 28  1  0  0  0  0
 27 48  1  0  0  0  0
 27 49  1  0  0  0  0
 28 29  1  0  0  0  0
 28 30  1  0  0  0  0
 28 50  1  0  0  0  0
 29 51  1  0  0  0  0
 29 52  1  0  0  0  0
 29 53  1  0  0  0  0
 30 54  1  0  0  0  0
 30 55  1  0  0  0  0
 30 56  1  0  0  0  0
 31 32  1  0  0  0  0
 31 57  1  0  0  0  0
 31 58  1  0  0  0  0
 32 59  1  0  0  0  0
 32 60  1  0  0  0  0
 32 61  1  0  0  0  0
M  END
$$$$
CHEMBL208583
  -OEChem-07121202283D

 62 65  0     0  0  0  0  0  0999 V2000
   -0.0187    1.5258    0.0104 C   0  0  0  0  0  0  0  0  0  0  0  0
    0.0021   -0.0041    0.0020 C   0  0  0  0  0  0  0  0  0  0  0  0
    0.7182   -0.4975   -1.2568 C   0  0  0  0  0  0  0  0  0  0  0  0
    0.7376   -1.9263   -1.2646 O   0  0  0  0  0  0  0  0  0  0  0  0
    1.3384   -2.5264   -2.3172 C   0  0  0  0  0  0  0  0  0  0  0  0
    1.3838   -3.9306   -2.3837 C   0  0  0  0  0  0  0  0  0  0  0  0
    2.0065   -4.5355   -3.4757 C   0  0  0  0  0  0  0  0  0  0  0  0
    2.5616   -3.7095   -4.4627 C   0  0  0  0  0  0  0  0  0  0  0  0
    2.4717   -2.3196   -4.3177 C   0  0  0  0  0  0  0  0  0  0  0  0
    1.8719   -1.7854   -3.2756 N   0  0  0  0  0  0  0  0  0  0  0  0
    3.2295   -4.2942   -5.6336 C   0  0  0  0  0  0  0  0  0  0  0  0
    3.3032   -5.4991   -5.7509 O   0  0  0  0  0  0  0  0  0  0  0  0
    3.8229   -3.3967   -6.6888 C   0  0  0  0  0  0  0  0  0  0  0  0
    0.7831   -4.7506   -1.3153 C   0  0  0  0  0  0  0  0  0  0  0  0
    0.8554   -6.1055   -1.4184 N   0  0  0  0  0  0  0  0  0  0  0  0
    0.3010   -6.9113   -0.4325 C   0  0  0  0  0  0  0  0  0  0  0  0
    0.1876   -8.2425   -0.2120 C   0  0  0  0  0  0  0  0  0  0  0  0
   -0.4771   -8.3942    0.9557 N   0  0  0  0  0  0  0  0  0  0  0  0
   -0.7735   -7.2457    1.4566 N   0  0  0  0  0  0  0  0  0  0  0  0
   -0.3368   -6.2866    0.6755 C   0  0  0  0  0  0  0  0  0  0  0  0
   -0.3676   -4.8127    0.7046 C   0  0  0  0  0  0  0  0  0  0  0  0
    0.2062   -4.1386   -0.3032 N   0  0  0  0  0  0  0  0  0  0  0  0
   -0.8994   -4.2192    1.6274 O   0  0  0  0  0  0  0  0  0  0  0  0
   -0.8133   -9.6835    1.5647 C   0  0  0  0  0  0  0  0  0  0  0  0
   -2.1834   -9.6988    2.2662 C   0  0  0  0  0  0  0  0  0  0  0  0
   -1.4533   -9.2857    3.4850 N   0  0  0  0  0  0  0  0  0  0  0  0
   -0.2048   -9.8852    2.9642 C   0  0  0  0  0  0  0  0  0  0  0  0
   -1.9377  -10.0182    4.6626 C   0  0  0  0  0  0  0  0  0  0  0  0
   -1.1608   -9.5649    5.9003 C   0  0  0  0  0  0  0  0  0  0  0  0
   -3.4275   -9.7334    4.8631 C   0  0  0  0  0  0  0  0  0  0  0  0
    0.7037   -9.3454   -1.0998 C   0  0  0  0  0  0  0  0  0  0  0  0
   -0.3746   -9.7298   -2.1149 C   0  0  0  0  0  0  0  0  0  0  0  0
    1.0039    1.9031    0.0027 H   0  0  0  0  0  0  0  0  0  0  0  0
   -0.5459    1.8868   -0.8726 H   0  0  0  0  0  0  0  0  0  0  0  0
   -0.5289    1.8773    0.9072 H   0  0  0  0  0  0  0  0  0  0  0  0
    0.5293   -0.3651    0.8851 H   0  0  0  0  0  0  0  0  0  0  0  0
   -1.0205   -0.3814    0.0098 H   0  0  0  0  0  0  0  0  0  0  0  0
    0.1910   -0.1364   -2.1398 H   0  0  0  0  0  0  0  0  0  0  0  0
    1.7408   -0.1202   -1.2645 H   0  0  0  0  0  0  0  0  0  0  0  0
    2.0597   -5.6111   -3.5582 H   0  0  0  0  0  0  0  0  0  0  0  0
    2.8974   -1.6769   -5.0740 H   0  0  0  0  0  0  0  0  0  0  0  0
    3.6602   -2.3548   -6.4130 H   0  0  0  0  0  0  0  0  0  0  0  0
    4.8929   -3.5885   -6.7691 H   0  0  0  0  0  0  0  0  0  0  0  0
    3.3448   -3.5976   -7.6475 H   0  0  0  0  0  0  0  0  0  0  0  0
   -0.6539  -10.5257    0.8914 H   0  0  0  0  0  0  0  0  0  0  0  0
   -2.8765   -8.9450    1.8927 H   0  0  0  0  0  0  0  0  0  0  0  0
   -2.6297  -10.6908    2.3367 H   0  0  0  0  0  0  0  0  0  0  0  0
   -0.0723  -10.9317    3.2388 H   0  0  0  0  0  0  0  0  0  0  0  0
    0.6830   -9.2802    3.1484 H   0  0  0  0  0  0  0  0  0  0  0  0
   -1.7892  -11.0874    4.5118 H   0  0  0  0  0  0  0  0  0  0  0  0
   -1.5202  -10.1084    6.7741 H   0  0  0  0  0  0  0  0  0  0  0  0
   -0.0994   -9.7678    5.7575 H   0  0  0  0  0  0  0  0  0  0  0  0
   -1.3092   -8.4956    6.0510 H   0  0  0  0  0  0  0  0  0  0  0  0
   -3.9810  -10.0563    3.9813 H   0  0  0  0  0  0  0  0  0  0  0  0
   -3.7870  -10.2769    5.7369 H   0  0  0  0  0  0  0  0  0  0  0  0
   -3.5760   -8.6641    5.0138 H   0  0  0  0  0  0  0  0  0  0  0  0
    1.5931   -9.0010   -1.6274 H   0  0  0  0  0  0  0  0  0  0  0  0
    0.9558  -10.2138   -0.4911 H   0  0  0  0  0  0  0  0  0  0  0  0
   -1.2640  -10.0743   -1.5872 H   0  0  0  0  0  0  0  0  0  0  0  0
   -0.6267   -8.8615   -2.7235 H   0  0  0  0  0  0  0  0  0  0  0  0
   -0.0013  -10.5276   -2.7570 H   0  0  0  0  0  0  0  0  0  0  0  0
    1.2952   -6.5096   -2.1827 H   0  0  0  0  0  0  0  0  0  0  0  0
  1  2  1  0  0  0  0
  1 33  1  0  0  0  0
  1 34  1  0  0  0  0
  1 35  1  0  0  0  0
  2  3  1  0  0  0  0
  2 36  1  0  0  0  0
  2 37  1  0  0  0  0
  3  4  1  0  0  0  0
  3 38  1  0  0  0  0
  3 39  1  0  0  0  0
  4  5  1  0  0  0  0
  5 10  2  0  0  0  0
  5  6  1  0  0  0  0
  6  7  2  0  0  0  0
  6 14  1  0  0  0  0
  7  8  1  0  0  0  0
  7 40  1  0  0  0  0
  8  9  2  0  0  0  0
  8 11  1  0  0  0  0
  9 10  1  0  0  0  0
  9 41  1  0  0  0  0
 11 12  2  0  0  0  0
 11 13  1  0  0  0  0
 13 42  1  0  0  0  0
 13 43  1  0  0  0  0
 13 44  1  0  0  0  0
 14 22  2  0  0  0  0
 14 15  1  0  0  0  0
 15 16  1  0  0  0  0
 15 62  1  0  0  0  0
 16 20  1  0  0  0  0
 16 17  2  0  0  0  0
 17 18  1  0  0  0  0
 17 31  1  0  0  0  0
 18 19  1  0  0  0  0
 18 24  1  0  0  0  0
 19 20  2  0  0  0  0
 20 21  1  0  0  0  0
 21 22  1  0  0  0  0
 21 23  2  0  0  0  0
 24 27  1  0  0  0  0
 24 25  1  0  0  0  0
 24 45  1  0  0  0  0
 25 26  1  0  0  0  0
 25 46  1  0  0  0  0
 25 47  1  0  0  0  0
 26 27  1  0  0  0  0
 26 28  1  0  0  0  0
 27 48  1  0  0  0  0
 27 49  1  0  0  0  0
 28 29  1  0  0  0  0
 28 30  1  0  0  0  0
 28 50  1  0  0  0  0
 29 51  1  0  0  0  0
 29 52  1  0  0  0  0
 29 53  1  0  0  0  0
 30 54  1  0  0  0  0
 30 55  1  0  0  0  0
 30 56  1  0  0  0  0
 31 32  1  0  0  0  0
 31 57  1  0  0  0  0
 31 58  1  0  0  0  0
 32 59  1  0  0  0  0
 32 60  1  0  0  0  0
 32 61  1  0  0  0  0
M  END
$$$$
CHEMBL208583
  -OEChem-07121202283D

 61 64  0     0  0  0  0  0  0999 V2000
   -0.0187    1.5258    0.0104 C   0  0  0  0  0  0  0  0  0  0  0  0
    0.0021   -0.0041    0.0020 C   0  0  0  0  0  0  0  0  0  0  0  0
    0.7421   -0.5109    1.2415 C   0  0  0  0  0  0  0  0  0  0  0  0
    0.7614   -1.9398    1.2337 O   0  0  0  0  0  0  0  0  0  0  0  0
    1.3826   -2.5515    2.2689 C   0  0  0  0  0  0  0  0  0  0  0  0
    1.4388   -3.9534    2.3128 C   0  0  0  0  0  0  0  0  0  0  0  0
    2.0803   -4.5703    3.3824 C   0  0  0  0  0  0  0  0  0  0  0  0
    2.6459   -3.7565    4.3756 C   0  0  0  0  0  0  0  0  0  0  0  0
    2.5447   -2.3660    4.2546 C   0  0  0  0  0  0  0  0  0  0  0  0
    1.9342   -1.8204    3.2243 N   0  0  0  0  0  0  0  0  0  0  0  0
    3.3344   -4.3557    5.5268 C   0  0  0  0  0  0  0  0  0  0  0  0
    3.4169   -5.5619    5.6235 O   0  0  0  0  0  0  0  0  0  0  0  0
    3.9381   -3.4717    6.5875 C   0  0  0  0  0  0  0  0  0  0  0  0
    0.8236   -4.7644    1.2362 C   0  0  0  0  0  0  0  0  0  0  0  0
    0.9011   -6.0746    1.3304 N   0  0  0  0  0  0  0  0  0  0  0  0
    0.3630   -6.8620    0.3874 C   0  0  0  0  0  0  0  0  0  0  0  0
    0.2415   -8.2121    0.1401 C   0  0  0  0  0  0  0  0  0  0  0  0
   -0.4331   -8.3391   -1.0171 N   0  0  0  0  0  0  0  0  0  0  0  0
   -0.7462   -7.1970   -1.5189 N   0  0  0  0  0  0  0  0  0  0  0  0
   -0.3161   -6.2195   -0.7549 C   0  0  0  0  0  0  0  0  0  0  0  0
   -0.3504   -4.7589   -0.7708 C   0  0  0  0  0  0  0  0  0  0  0  0
    0.2214   -4.1206    0.2353 N   0  0  0  0  0  0  0  0  0  0  0  0
   -0.9504   -4.0837   -1.7778 O   0  5  0  0  0  0  0  0  0  0  0  0
   -0.7705   -9.6252   -1.6324 C   0  0  0  0  0  0  0  0  0  0  0  0
   -0.6935   -9.6156   -3.1698 C   0  0  0  0  0  0  0  0  0  0  0  0
   -2.1209   -9.2273   -3.1401 N   0  0  0  0  0  0  0  0  0  0  0  0
   -2.2831   -9.8502   -1.8079 C   0  0  0  0  0  0  0  0  0  0  0  0
   -2.8864   -9.9574   -4.1594 C   0  0  0  0  0  0  0  0  0  0  0  0
   -4.3543   -9.5302   -4.0980 C   0  0  0  0  0  0  0  0  0  0  0  0
   -2.3208   -9.6416   -5.5454 C   0  0  0  0  0  0  0  0  0  0  0  0
    0.7651   -9.3326    1.0010 C   0  0  0  0  0  0  0  0  0  0  0  0
    2.1871   -9.6899    0.5639 C   0  0  0  0  0  0  0  0  0  0  0  0
    1.0039    1.9031    0.0027 H   0  0  0  0  0  0  0  0  0  0  0  0
   -0.5459    1.8868   -0.8726 H   0  0  0  0  0  0  0  0  0  0  0  0
   -0.5289    1.8773    0.9072 H   0  0  0  0  0  0  0  0  0  0  0  0
   -1.0205   -0.3814    0.0098 H   0  0  0  0  0  0  0  0  0  0  0  0
    0.5123   -0.3556   -0.8948 H   0  0  0  0  0  0  0  0  0  0  0  0
    1.7647   -0.1336    1.2338 H   0  0  0  0  0  0  0  0  0  0  0  0
    0.2319   -0.1594    2.1383 H   0  0  0  0  0  0  0  0  0  0  0  0
    2.1409   -5.6467    3.4466 H   0  0  0  0  0  0  0  0  0  0  0  0
    2.9769   -1.7321    5.0147 H   0  0  0  0  0  0  0  0  0  0  0  0
    3.7653   -2.4265    6.3310 H   0  0  0  0  0  0  0  0  0  0  0  0
    3.4755   -3.6910    7.5498 H   0  0  0  0  0  0  0  0  0  0  0  0
    5.0103   -3.6583    6.6489 H   0  0  0  0  0  0  0  0  0  0  0  0
   -0.2525  -10.4658   -1.1707 H   0  0  0  0  0  0  0  0  0  0  0  0
   -0.0368   -8.8441   -3.5718 H   0  0  0  0  0  0  0  0  0  0  0  0
   -0.5146  -10.5980   -3.6067 H   0  0  0  0  0  0  0  0  0  0  0  0
   -2.5692  -10.9013   -1.8464 H   0  0  0  0  0  0  0  0  0  0  0  0
   -2.8965   -9.2662   -1.1217 H   0  0  0  0  0  0  0  0  0  0  0  0
   -2.8116  -11.0286   -3.9719 H   0  0  0  0  0  0  0  0  0  0  0  0
   -4.4291   -8.4591   -4.2855 H   0  0  0  0  0  0  0  0  0  0  0  0
   -4.9223  -10.0720   -4.8543 H   0  0  0  0  0  0  0  0  0  0  0  0
   -4.7572   -9.7552   -3.1106 H   0  0  0  0  0  0  0  0  0  0  0  0
   -2.8888  -10.1834   -6.3017 H   0  0  0  0  0  0  0  0  0  0  0  0
   -2.3956   -8.5705   -5.7329 H   0  0  0  0  0  0  0  0  0  0  0  0
   -1.2751   -9.9460   -5.5891 H   0  0  0  0  0  0  0  0  0  0  0  0
    0.7744   -9.0156    2.0439 H   0  0  0  0  0  0  0  0  0  0  0  0
    0.1214  -10.2055    0.8924 H   0  0  0  0  0  0  0  0  0  0  0  0
    2.5658  -10.5004    1.1866 H   0  0  0  0  0  0  0  0  0  0  0  0
    2.1778  -10.0069   -0.4790 H   0  0  0  0  0  0  0  0  0  0  0  0
    2.8308   -8.8170    0.6725 H   0  0  0  0  0  0  0  0  0  0  0  0
  1  2  1  0  0  0  0
  1 33  1  0  0  0  0
  1 34  1  0  0  0  0
  1 35  1  0  0  0  0
  2  3  1  0  0  0  0
  2 36  1  0  0  0  0
  2 37  1  0  0  0  0
  3  4  1  0  0  0  0
  3 38  1  0  0  0  0
  3 39  1  0  0  0  0
  4  5  1  0  0  0  0
  5 10  2  0  0  0  0
  5  6  1  0  0  0  0
  6  7  2  0  0  0  0
  6 14  1  0  0  0  0
  7  8  1  0  0  0  0
  7 40  1  0  0  0  0
  8  9  2  0  0  0  0
  8 11  1  0  0  0  0
  9 10  1  0  0  0  0
  9 41  1  0  0  0  0
 11 12  2  0  0  0  0
 11 13  1  0  0  0  0
 13 42  1  0  0  0  0
 13 43  1  0  0  0  0
 13 44  1  0  0  0  0
 14 22  1  0  0  0  0
 14 15  2  0  0  0  0
 15 16  1  0  0  0  0
 16 20  1  0  0  0  0
 16 17  2  0  0  0  0
 17 18  1  0  0  0  0
 17 31  1  0  0  0  0
 18 19  1  0  0  0  0
 18 24  1  0  0  0  0
 19 20  2  0  0  0  0
 20 21  1  0  0  0  0
 21 22  2  0  0  0  0
 21 23  1  0  0  0  0
 24 27  1  0  0  0  0
 24 25  1  0  0  0  0
 24 45  1  0  0  0  0
 25 26  1  0  0  0  0
 25 46  1  0  0  0  0
 25 47  1  0  0  0  0
 26 27  1  0  0  0  0
 26 28  1  0  0  0  0
 27 48  1  0  0  0  0
 27 49  1  0  0  0  0
 28 29  1  0  0  0  0
 28 30  1  0  0  0  0
 28 50  1  0  0  0  0
 29 51  1  0  0  0  0
 29 52  1  0  0  0  0
 29 53  1  0  0  0  0
 30 54  1  0  0  0  0
 30 55  1  0  0  0  0
 30 56  1  0  0  0  0
 31 32  1  0  0  0  0
 31 57  1  0  0  0  0
 31 58  1  0  0  0  0
 32 59  1  0  0  0  0
 32 60  1  0  0  0  0
 32 61  1  0  0  0  0
M  CHG  1  23  -1
M  END
$$$$
CHEMBL208583
  -OEChem-07121202283D

 63 66  0     0  0  0  0  0  0999 V2000
   -0.0187    1.5258    0.0104 C   0  0  0  0  0  0  0  0  0  0  0  0
    0.0021   -0.0041    0.0020 C   0  0  0  0  0  0  0  0  0  0  0  0
    0.7182   -0.4975   -1.2568 C   0  0  0  0  0  0  0  0  0  0  0  0
    0.7376   -1.9263   -1.2646 O   0  0  0  0  0  0  0  0  0  0  0  0
    1.3387   -2.5267   -2.3177 C   0  0  0  0  0  0  0  0  0  0  0  0
    1.3840   -3.9298   -2.3838 C   0  0  0  0  0  0  0  0  0  0  0  0
    2.0063   -4.5349   -3.4742 C   0  0  0  0  0  0  0  0  0  0  0  0
    2.5624   -3.7092   -4.4621 C   0  0  0  0  0  0  0  0  0  0  0  0
    2.4726   -2.3198   -4.3177 C   0  0  0  0  0  0  0  0  0  0  0  0
    1.8720   -1.7857   -3.2758 N   0  0  0  0  0  0  0  0  0  0  0  0
    3.2304   -4.2946   -5.6324 C   0  0  0  0  0  0  0  0  0  0  0  0
    3.3039   -5.4996   -5.7491 O   0  0  0  0  0  0  0  0  0  0  0  0
    3.8245   -3.3978   -6.6878 C   0  0  0  0  0  0  0  0  0  0  0  0
    0.7819   -4.7506   -1.3139 C   0  0  0  0  0  0  0  0  0  0  0  0
    0.2061   -4.1349   -0.3153 N   0  0  0  0  0  0  0  0  0  0  0  0
   -0.3667   -4.8248    0.7009 C   0  0  0  0  0  0  0  0  0  0  0  0
   -1.0329   -4.5259    1.8636 C   0  0  0  0  0  0  0  0  0  0  0  0
   -1.3532   -5.7010    2.4457 N   0  0  0  0  0  0  0  0  0  0  0  0
   -0.9466   -6.7037    1.7505 N   0  0  0  0  0  0  0  0  0  0  0  0
   -0.3324   -6.2974    0.6667 C   0  0  0  0  0  0  0  0  0  0  0  0
    0.3303   -6.9295   -0.4826 C   0  0  0  0  0  0  0  0  0  0  0  0
    0.8541   -6.1149   -1.4276 N   0  0  0  0  0  0  0  0  0  0  0  0
    0.4001   -8.1402   -0.5837 O   0  0  0  0  0  0  0  0  0  0  0  0
   -2.0752   -5.8196    3.7149 C   0  0  0  0  0  0  0  0  0  0  0  0
   -1.5948   -6.9884    4.5940 C   0  0  0  0  0  0  0  0  0  0  0  0
   -2.6229   -7.7993    3.9051 N   0  3  0  0  0  0  0  0  0  0  0  0
   -3.4075   -6.5822    3.6009 C   0  0  0  0  0  0  0  0  0  0  0  0
   -3.3240   -8.7226    4.8072 C   0  0  0  0  0  0  0  0  0  0  0  0
   -4.3643   -9.5176    4.0154 C   0  0  0  0  0  0  0  0  0  0  0  0
   -2.3153   -9.6865    5.4352 C   0  0  0  0  0  0  0  0  0  0  0  0
   -1.3461   -3.1490    2.3899 C   0  0  0  0  0  0  0  0  0  0  0  0
   -0.1989   -2.6711    3.2824 C   0  0  0  0  0  0  0  0  0  0  0  0
    1.0039    1.9031    0.0027 H   0  0  0  0  0  0  0  0  0  0  0  0
   -0.5459    1.8868   -0.8726 H   0  0  0  0  0  0  0  0  0  0  0  0
   -0.5289    1.8773    0.9072 H   0  0  0  0  0  0  0  0  0  0  0  0
    0.5293   -0.3651    0.8851 H   0  0  0  0  0  0  0  0  0  0  0  0
   -1.0205   -0.3814    0.0098 H   0  0  0  0  0  0  0  0  0  0  0  0
    0.1910   -0.1364   -2.1398 H   0  0  0  0  0  0  0  0  0  0  0  0
    1.7408   -0.1202   -1.2645 H   0  0  0  0  0  0  0  0  0  0  0  0
    2.0592   -5.6105   -3.5560 H   0  0  0  0  0  0  0  0  0  0  0  0
    2.8984   -1.6773   -5.0742 H   0  0  0  0  0  0  0  0  0  0  0  0
    4.8613   -3.1763   -6.4348 H   0  0  0  0  0  0  0  0  0  0  0  0
    3.7856   -3.8995   -7.6548 H   0  0  0  0  0  0  0  0  0  0  0  0
    3.2561   -2.4690   -6.7373 H   0  0  0  0  0  0  0  0  0  0  0  0
   -2.1562   -4.8721    4.2477 H   0  0  0  0  0  0  0  0  0  0  0  0
   -0.5730   -7.3045    4.3844 H   0  0  0  0  0  0  0  0  0  0  0  0
   -1.7876   -6.8461    5.6574 H   0  0  0  0  0  0  0  0  0  0  0  0
   -4.1304   -6.3212    4.3738 H   0  0  0  0  0  0  0  0  0  0  0  0
   -3.8338   -6.5739    2.5978 H   0  0  0  0  0  0  0  0  0  0  0  0
   -3.8219   -8.1548    5.5932 H   0  0  0  0  0  0  0  0  0  0  0  0
   -4.8845  -10.2028    4.6848 H   0  0  0  0  0  0  0  0  0  0  0  0
   -5.0829   -8.8310    3.5681 H   0  0  0  0  0  0  0  0  0  0  0  0
   -3.8665  -10.0855    3.2294 H   0  0  0  0  0  0  0  0  0  0  0  0
   -1.5742   -9.1201    5.9992 H   0  0  0  0  0  0  0  0  0  0  0  0
   -2.8355  -10.3716    6.1045 H   0  0  0  0  0  0  0  0  0  0  0  0
   -1.8175  -10.2543    4.6492 H   0  0  0  0  0  0  0  0  0  0  0  0
   -1.4678   -2.4597    1.5543 H   0  0  0  0  0  0  0  0  0  0  0  0
   -2.2681   -3.1829    2.9702 H   0  0  0  0  0  0  0  0  0  0  0  0
   -0.0772   -3.3604    4.1179 H   0  0  0  0  0  0  0  0  0  0  0  0
    0.7231   -2.6372    2.7020 H   0  0  0  0  0  0  0  0  0  0  0  0
   -0.4254   -1.6751    3.6630 H   0  0  0  0  0  0  0  0  0  0  0  0
    1.2937   -6.5044   -2.1996 H   0  0  0  0  0  0  0  0  0  0  0  0
   -2.2727   -8.2588    3.0779 H   0  0  0  0  0  0  0  0  0  0  0  0
  1  2  1  0  0  0  0
  1 33  1  0  0  0  0
  1 34  1  0  0  0  0
  1 35  1  0  0  0  0
  2  3  1  0  0  0  0
  2 36  1  0  0  0  0
  2 37  1  0  0  0  0
  3  4  1  0  0  0  0
  3 38  1  0  0  0  0
  3 39  1  0  0  0  0
  4  5  1  0  0  0  0
  5 10  2  0  0  0  0
  5  6  1  0  0  0  0
  6  7  2  0  0  0  0
  6 14  1  0  0  0  0
  7  8  1  0  0  0  0
  7 40  1  0  0  0  0
  8  9  2  0  0  0  0
  8 11  1  0  0  0  0
  9 10  1  0  0  0  0
  9 41  1  0  0  0  0
 11 12  2  0  0  0  0
 11 13  1  0  0  0  0
 13 42  1  0  0  0  0
 13 43  1  0  0  0  0
 13 44  1  0  0  0  0
 14 22  1  0  0  0  0
 14 15  2  0  0  0  0
 15 16  1  0  0  0  0
 16 20  1  0  0  0  0
 16 17  2  0  0  0  0
 17 18  1  0  0  0  0
 17 31  1  0  0  0  0
 18 19  1  0  0  0  0
 18 24  1  0  0  0  0
 19 20  2  0  0  0  0
 20 21  1  0  0  0  0
 21 22  1  0  0  0  0
 21 23  2  0  0  0  0
 22 62  1  0  0  0  0
 24 27  1  0  0  0  0
 24 25  1  0  0  0  0
 24 45  1  0  0  0  0
 25 26  1  0  0  0  0
 25 46  1  0  0  0  0
 25 47  1  0  0  0  0
 26 27  1  0  0  0  0
 26 28  1  0  0  0  0
 26 63  1  0  0  0  0
 27 48  1  0  0  0  0
 27 49  1  0  0  0  0
 28 29  1  0  0  0  0
 28 30  1  0  0  0  0
 28 50  1  0  0  0  0
 29 51  1  0  0  0  0
 29 52  1  0  0  0  0
 29 53  1  0  0  0  0
 30 54  1  0  0  0  0
 30 55  1  0  0  0  0
 30 56  1  0  0  0  0
 31 32  1  0  0  0  0
 31 57  1  0  0  0  0
 31 58  1  0  0  0  0
 32 59  1  0  0  0  0
 32 60  1  0  0  0  0
 32 61  1  0  0  0  0
M  CHG  1  26   1
M  END
$$$$
CHEMBL208583
  -OEChem-07121202283D

 63 66  0     0  0  0  0  0  0999 V2000
   -0.0187    1.5258    0.0104 C   0  0  0  0  0  0  0  0  0  0  0  0
    0.0021   -0.0041    0.0020 C   0  0  0  0  0  0  0  0  0  0  0  0
    0.7421   -0.5109    1.2415 C   0  0  0  0  0  0  0  0  0  0  0  0
    0.7614   -1.9398    1.2337 O   0  0  0  0  0  0  0  0  0  0  0  0
    1.3822   -2.5511    2.2681 C   0  0  0  0  0  0  0  0  0  0  0  0
    1.4388   -3.9557    2.3126 C   0  0  0  0  0  0  0  0  0  0  0  0
    2.0828   -4.5722    3.3856 C   0  0  0  0  0  0  0  0  0  0  0  0
    2.6473   -3.7570    4.3762 C   0  0  0  0  0  0  0  0  0  0  0  0
    2.5451   -2.3657    4.2536 C   0  0  0  0  0  0  0  0  0  0  0  0
    1.9340   -1.8203    3.2240 N   0  0  0  0  0  0  0  0  0  0  0  0
    3.3368   -4.3541    5.5281 C   0  0  0  0  0  0  0  0  0  0  0  0
    3.4203   -5.5601    5.6265 O   0  0  0  0  0  0  0  0  0  0  0  0
    3.9401   -3.4681    6.5874 C   0  0  0  0  0  0  0  0  0  0  0  0
    0.8266   -4.7641    1.2419 C   0  0  0  0  0  0  0  0  0  0  0  0
    0.9008   -6.1200    1.3290 N   0  0  0  0  0  0  0  0  0  0  0  0
    0.3366   -6.9151    0.3400 C   0  0  0  0  0  0  0  0  0  0  0  0
    0.2231   -8.2437    0.1050 C   0  0  0  0  0  0  0  0  0  0  0  0
   -0.4537   -8.3828   -1.0574 N   0  0  0  0  0  0  0  0  0  0  0  0
   -0.7573   -7.2290   -1.5415 N   0  0  0  0  0  0  0  0  0  0  0  0
   -0.3140   -6.2784   -0.7537 C   0  0  0  0  0  0  0  0  0  0  0  0
   -0.3468   -4.8043   -0.7655 C   0  0  0  0  0  0  0  0  0  0  0  0
    0.2288   -4.1414    0.2487 N   0  0  0  0  0  0  0  0  0  0  0  0
   -0.8894   -4.2009   -1.6754 O   0  0  0  0  0  0  0  0  0  0  0  0
   -0.7930   -9.6654   -1.6787 C   0  0  0  0  0  0  0  0  0  0  0  0
   -0.7156   -9.6488   -3.2161 C   0  0  0  0  0  0  0  0  0  0  0  0
   -2.1425   -9.2584   -3.1849 N   0  3  0  0  0  0  0  0  0  0  0  0
   -2.3060   -9.8872   -1.8556 C   0  0  0  0  0  0  0  0  0  0  0  0
   -2.9390   -9.9137   -4.2309 C   0  0  0  0  0  0  0  0  0  0  0  0
   -4.3949   -9.4551   -4.1258 C   0  0  0  0  0  0  0  0  0  0  0  0
   -2.3837   -9.5372   -5.6059 C   0  0  0  0  0  0  0  0  0  0  0  0
    0.7512   -9.3562    0.9736 C   0  0  0  0  0  0  0  0  0  0  0  0
    2.1751   -9.7098    0.5398 C   0  0  0  0  0  0  0  0  0  0  0  0
    1.0039    1.9031    0.0027 H   0  0  0  0  0  0  0  0  0  0  0  0
   -0.5459    1.8868   -0.8726 H   0  0  0  0  0  0  0  0  0  0  0  0
   -0.5289    1.8773    0.9072 H   0  0  0  0  0  0  0  0  0  0  0  0
   -1.0205   -0.3814    0.0098 H   0  0  0  0  0  0  0  0  0  0  0  0
    0.5123   -0.3556   -0.8948 H   0  0  0  0  0  0  0  0  0  0  0  0
    1.7647   -0.1336    1.2338 H   0  0  0  0  0  0  0  0  0  0  0  0
    0.2319   -0.1594    2.1383 H   0  0  0  0  0  0  0  0  0  0  0  0
    2.1445   -5.6485    3.4514 H   0  0  0  0  0  0  0  0  0  0  0  0
    2.9773   -1.7313    5.0132 H   0  0  0  0  0  0  0  0  0  0  0  0
    3.7663   -2.4234    6.3295 H   0  0  0  0  0  0  0  0  0  0  0  0
    3.4779   -3.6864    7.5501 H   0  0  0  0  0  0  0  0  0  0  0  0
    5.0124   -3.6537    6.6487 H   0  0  0  0  0  0  0  0  0  0  0  0
   -0.2765  -10.5090   -1.2209 H   0  0  0  0  0  0  0  0  0  0  0  0
   -0.0576   -8.8765   -3.6144 H   0  0  0  0  0  0  0  0  0  0  0  0
   -0.5382  -10.6295   -3.6575 H   0  0  0  0  0  0  0  0  0  0  0  0
   -2.5937  -10.9376   -1.8991 H   0  0  0  0  0  0  0  0  0  0  0  0
   -2.9186   -9.3053   -1.1669 H   0  0  0  0  0  0  0  0  0  0  0  0
   -2.8884  -10.9949   -4.1022 H   0  0  0  0  0  0  0  0  0  0  0  0
   -4.9859   -9.9414   -4.9019 H   0  0  0  0  0  0  0  0  0  0  0  0
   -4.7905   -9.7233   -3.1462 H   0  0  0  0  0  0  0  0  0  0  0  0
   -4.4454   -8.3739   -4.2545 H   0  0  0  0  0  0  0  0  0  0  0  0
   -1.3465   -9.8639   -5.6808 H   0  0  0  0  0  0  0  0  0  0  0  0
   -2.9747  -10.0235   -6.3821 H   0  0  0  0  0  0  0  0  0  0  0  0
   -2.4342   -8.4560   -5.7346 H   0  0  0  0  0  0  0  0  0  0  0  0
    0.7583   -9.0324    2.0144 H   0  0  0  0  0  0  0  0  0  0  0  0
    0.1116  -10.2327    0.8702 H   0  0  0  0  0  0  0  0  0  0  0  0
    2.1680  -10.0337   -0.5010 H   0  0  0  0  0  0  0  0  0  0  0  0
    2.8147   -8.8333    0.6432 H   0  0  0  0  0  0  0  0  0  0  0  0
    2.5571  -10.5145    1.1681 H   0  0  0  0  0  0  0  0  0  0  0  0
    1.3493   -6.5324    2.0838 H   0  0  0  0  0  0  0  0  0  0  0  0
   -2.2767   -8.2585   -3.1667 H   0  0  0  0  0  0  0  0  0  0  0  0
  1  2  1  0  0  0  0
  1 33  1  0  0  0  0
  1 34  1  0  0  0  0
  1 35  1  0  0  0  0
  2  3  1  0  0  0  0
  2 36  1  0  0  0  0
  2 37  1  0  0  0  0
  3  4  1  0  0  0  0
  3 38  1  0  0  0  0
  3 39  1  0  0  0  0
  4  5  1  0  0  0  0
  5 10  2  0  0  0  0
  5  6  1  0  0  0  0
  6  7  2  0  0  0  0
  6 14  1  0  0  0  0
  7  8  1  0  0  0  0
  7 40  1  0  0  0  0
  8  9  2  0  0  0  0
  8 11  1  0  0  0  0
  9 10  1  0  0  0  0
  9 41  1  0  0  0  0
 11 12  2  0  0  0  0
 11 13  1  0  0  0  0
 13 42  1  0  0  0  0
 13 43  1  0  0  0  0
 13 44  1  0  0  0  0
 14 22  2  0  0  0  0
 14 15  1  0  0  0  0
 15 16  1  0  0  0  0
 15 62  1  0  0  0  0
 16 20  1  0  0  0  0
 16 17  2  0  0  0  0
 17 18  1  0  0  0  0
 17 31  1  0  0  0  0
 18 19  1  0  0  0  0
 18 24  1  0  0  0  0
 19 20  2  0  0  0  0
 20 21  1  0  0  0  0
 21 22  1  0  0  0  0
 21 23  2  0  0  0  0
 24 27  1  0  0  0  0
 24 25  1  0  0  0  0
 24 45  1  0  0  0  0
 25 26  1  0  0  0  0
 25 46  1  0  0  0  0
 25 47  1  0  0  0  0
 26 27  1  0  0  0  0
 26 28  1  0  0  0  0
 26 63  1  0  0  0  0
 27 48  1  0  0  0  0
 27 49  1  0  0  0  0
 28 29  1  0  0  0  0
 28 30  1  0  0  0  0
 28 50  1  0  0  0  0
 29 51  1  0  0  0  0
 29 52  1  0  0  0  0
 29 53  1  0  0  0  0
 30 54  1  0  0  0  0
 30 55  1  0  0  0  0
 30 56  1  0  0  0  0
 31 32  1  0  0  0  0
 31 57  1  0  0  0  0
 31 58  1  0  0  0  0
 32 59  1  0  0  0  0
 32 60  1  0  0  0  0
 32 61  1  0  0  0  0
M  CHG  1  26   1
M  END
$$$$
CHEMBL550007
  -OEChem-07121202283D

 66 70  0     0  0  0  0  0  0999 V2000
   -0.0168    1.3901    0.0097 C   0  0  0  0  0  0  0  0  0  0  0  0
    1.1694    2.0950    0.0021 C   0  0  0  0  0  0  0  0  0  0  0  0
    2.3788    1.4204   -0.0135 C   0  0  0  0  0  0  0  0  0  0  0  0
    2.4040    0.0324   -0.0216 C   0  0  0  0  0  0  0  0  0  0  0  0
    1.2215   -0.6809   -0.0137 C   0  0  0  0  0  0  0  0  0  0  0  0
    0.0021   -0.0041    0.0020 C   0  0  0  0  0  0  0  0  0  0  0  0
   -1.2697   -0.7644    0.0106 C   0  0  0  0  0  0  0  0  0  0  0  0
   -1.2346   -2.1619    0.0085 C   0  0  0  0  0  0  0  0  0  0  0  0
   -2.4067   -2.8662    0.0163 C   0  0  0  0  0  0  0  0  0  0  0  0
   -3.6180   -2.1529    0.0264 C   0  0  0  0  0  0  0  0  0  0  0  0
   -3.5824   -0.7457    0.0280 C   0  0  0  0  0  0  0  0  0  0  0  0
   -2.4209   -0.1080    0.0255 N   0  0  0  0  0  0  0  0  0  0  0  0
   -4.7618   -0.0282    0.0378 N   0  0  0  0  0  0  0  0  0  0  0  0
   -5.9370   -0.6933    0.0458 C   0  0  0  0  0  0  0  0  0  0  0  0
   -6.9900   -0.0830    0.0541 O   0  0  0  0  0  0  0  0  0  0  0  0
   -5.9292   -2.1677    0.0437 C   0  0  0  0  0  0  0  0  0  0  0  0
   -4.7910   -2.8152    0.0347 N   0  0  0  0  0  0  0  0  0  0  0  0
   -7.1236   -2.8666    0.0514 N   0  0  0  0  0  0  0  0  0  0  0  0
   -7.1150   -4.3316    0.0493 C   0  0  0  0  0  0  0  0  0  0  0  0
   -8.5545   -4.8500    0.0589 C   0  0  0  0  0  0  0  0  0  0  0  0
   -8.5459   -6.3190    0.0569 N   0  0  0  0  0  0  0  0  0  0  0  0
   -8.0017   -6.8409   -1.2051 C   0  0  0  0  0  0  0  0  0  0  0  0
   -7.9555   -8.3699   -1.1411 C   0  0  0  0  0  0  0  0  0  0  0  0
   -9.2673   -8.8704   -0.8691 O   0  0  0  0  0  0  0  0  0  0  0  0
   -9.8276   -8.3828    0.3530 C   0  0  0  0  0  0  0  0  0  0  0  0
   -9.8928   -6.8540    0.3041 C   0  0  0  0  0  0  0  0  0  0  0  0
   -4.7388    1.4366    0.0401 C   0  0  0  0  0  0  0  0  0  0  0  0
   -4.7413    1.9489   -1.4016 C   0  0  0  0  0  0  0  0  0  0  0  0
   -3.4456    1.5248   -2.0959 C   0  0  0  0  0  0  0  0  0  0  0  0
   -3.4481    2.0371   -3.5376 C   0  0  0  0  0  0  0  0  0  0  0  0
   -3.5498    3.5637   -3.5361 C   0  0  0  0  0  0  0  0  0  0  0  0
   -4.8456    3.9879   -2.8418 C   0  0  0  0  0  0  0  0  0  0  0  0
   -4.8430    3.4755   -1.4002 C   0  0  0  0  0  0  0  0  0  0  0  0
    3.5863   -0.6210   -0.0378 F   0  0  0  0  0  0  0  0  0  0  0  0
    3.5375    2.1151   -0.0213 F   0  0  0  0  0  0  0  0  0  0  0  0
   -0.9590    1.9178    0.0260 H   0  0  0  0  0  0  0  0  0  0  0  0
    1.1546    3.1749    0.0081 H   0  0  0  0  0  0  0  0  0  0  0  0
    1.2410   -1.7607   -0.0204 H   0  0  0  0  0  0  0  0  0  0  0  0
   -0.2880   -2.6818    0.0003 H   0  0  0  0  0  0  0  0  0  0  0  0
   -2.4018   -3.9462    0.0145 H   0  0  0  0  0  0  0  0  0  0  0  0
   -7.9664   -2.3865    0.0580 H   0  0  0  0  0  0  0  0  0  0  0  0
   -6.6055   -4.6907   -0.8448 H   0  0  0  0  0  0  0  0  0  0  0  0
   -6.5927   -4.6931    0.9351 H   0  0  0  0  0  0  0  0  0  0  0  0
   -9.0641   -4.4909    0.9531 H   0  0  0  0  0  0  0  0  0  0  0  0
   -9.0768   -4.4885   -0.8269 H   0  0  0  0  0  0  0  0  0  0  0  0
   -8.6395   -6.5304   -2.0326 H   0  0  0  0  0  0  0  0  0  0  0  0
   -6.9944   -6.4523   -1.3554 H   0  0  0  0  0  0  0  0  0  0  0  0
   -7.6063   -8.7637   -2.0955 H   0  0  0  0  0  0  0  0  0  0  0  0
   -7.2756   -8.6806   -0.3477 H   0  0  0  0  0  0  0  0  0  0  0  0
  -10.8324   -8.7861    0.4792 H   0  0  0  0  0  0  0  0  0  0  0  0
   -9.2022   -8.6939    1.1898 H   0  0  0  0  0  0  0  0  0  0  0  0
  -10.2660   -6.4750    1.2555 H   0  0  0  0  0  0  0  0  0  0  0  0
  -10.5608   -6.5437   -0.4993 H   0  0  0  0  0  0  0  0  0  0  0  0
   -5.6191    1.8130    0.5610 H   0  0  0  0  0  0  0  0  0  0  0  0
   -3.8394    1.7850    0.5479 H   0  0  0  0  0  0  0  0  0  0  0  0
   -5.5938    1.5285   -1.9351 H   0  0  0  0  0  0  0  0  0  0  0  0
   -2.5931    1.9452   -1.5624 H   0  0  0  0  0  0  0  0  0  0  0  0
   -3.3731    0.4372   -2.0969 H   0  0  0  0  0  0  0  0  0  0  0  0
   -2.5250    1.7349   -4.0322 H   0  0  0  0  0  0  0  0  0  0  0  0
   -4.3006    1.6167   -4.0710 H   0  0  0  0  0  0  0  0  0  0  0  0
   -2.6974    3.9841   -3.0026 H   0  0  0  0  0  0  0  0  0  0  0  0
   -3.5517    3.9287   -4.5632 H   0  0  0  0  0  0  0  0  0  0  0  0
   -4.9181    5.0754   -2.8408 H   0  0  0  0  0  0  0  0  0  0  0  0
   -5.6981    3.5674   -3.3753 H   0  0  0  0  0  0  0  0  0  0  0  0
   -5.7662    3.7777   -0.9056 H   0  0  0  0  0  0  0  0  0  0  0  0
   -3.9906    3.8960   -0.8667 H   0  0  0  0  0  0  0  0  0  0  0  0
  1  6  2  0  0  0  0
  1  2  1  0  0  0  0
  1 36  1  0  0  0  0
  2  3  2  0  0  0  0
  2 37  1  0  0  0  0
  3  4  1  0  0  0  0
  3 35  1  0  0  0  0
  4  5  2  0  0  0  0
  4 34  1  0  0  0  0
  5  6  1  0  0  0  0
  5 38  1  0  0  0  0
  6  7  1  0  0  0  0
  7 12  2  0  0  0  0
  7  8  1  0  0  0  0
  8  9  2  0  0  0  0
  8 39  1  0  0  0  0
  9 10  1  0  0  0  0
  9 40  1  0  0  0  0
 10 17  1  0  0  0  0
 10 11  2  0  0  0  0
 11 12  1  0  0  0  0
 11 13  1  0  0  0  0
 13 14  1  0  0  0  0
 13 27  1  0  0  0  0
 14 15  2  0  0  0  0
 14 16  1  0  0  0  0
 16 17  2  0  0  0  0
 16 18  1  0  0  0  0
 18 19  1  0  0  0  0
 18 41  1  0  0  0  0
 19 20  1  0  0  0  0
 19 42  1  0  0  0  0
 19 43  1  0  0  0  0
 20 21  1  0  0  0  0
 20 44  1  0  0  0  0
 20 45  1  0  0  0  0
 21 26  1  0  0  0  0
 21 22  1  0  0  0  0
 22 23  1  0  0  0  0
 22 46  1  0  0  0  0
 22 47  1  0  0  0  0
 23 24  1  0  0  0  0
 23 48  1  0  0  0  0
 23 49  1  0  0  0  0
 24 25  1  0  0  0  0
 25 26  1  0  0  0  0
 25 50  1  0  0  0  0
 25 51  1  0  0  0  0
 26 52  1  0  0  0  0
 26 53  1  0  0  0  0
 27 28  1  0  0  0  0
 27 54  1  0  0  0  0
 27 55  1  0  0  0  0
 28 33  1  0  0  0  0
 28 29  1  0  0  0  0
 28 56  1  0  0  0  0
 29 30  1  0  0  0  0
 29 57  1  0  0  0  0
 29 58  1  0  0  0  0
 30 31  1  0  0  0  0
 30 59  1  0  0  0  0
 30 60  1  0  0  0  0
 31 32  1  0  0  0  0
 31 61  1  0  0  0  0
 31 62  1  0  0  0  0
 32 33  1  0  0  0  0
 32 63  1  0  0  0  0
 32 64  1  0  0  0  0
 33 65  1  0  0  0  0
 33 66  1  0  0  0  0
M  END
$$$$
CHEMBL550007
  -OEChem-07121202283D

 67 71  0     0  0  0  0  0  0999 V2000
   -0.0168    1.3901    0.0097 C   0  0  0  0  0  0  0  0  0  0  0  0
    1.1694    2.0950    0.0021 C   0  0  0  0  0  0  0  0  0  0  0  0
    2.3788    1.4204   -0.0135 C   0  0  0  0  0  0  0  0  0  0  0  0
    2.4040    0.0324   -0.0216 C   0  0  0  0  0  0  0  0  0  0  0  0
    1.2215   -0.6809   -0.0137 C   0  0  0  0  0  0  0  0  0  0  0  0
    0.0021   -0.0041    0.0020 C   0  0  0  0  0  0  0  0  0  0  0  0
   -1.2697   -0.7644    0.0106 C   0  0  0  0  0  0  0  0  0  0  0  0
   -1.2346   -2.1619    0.0085 C   0  0  0  0  0  0  0  0  0  0  0  0
   -2.4067   -2.8662    0.0163 C   0  0  0  0  0  0  0  0  0  0  0  0
   -3.6180   -2.1529    0.0264 C   0  0  0  0  0  0  0  0  0  0  0  0
   -3.5824   -0.7457    0.0280 C   0  0  0  0  0  0  0  0  0  0  0  0
   -2.4209   -0.1080    0.0255 N   0  0  0  0  0  0  0  0  0  0  0  0
   -4.7618   -0.0282    0.0378 N   0  0  0  0  0  0  0  0  0  0  0  0
   -5.9370   -0.6933    0.0458 C   0  0  0  0  0  0  0  0  0  0  0  0
   -6.9900   -0.0830    0.0541 O   0  0  0  0  0  0  0  0  0  0  0  0
   -5.9292   -2.1677    0.0437 C   0  0  0  0  0  0  0  0  0  0  0  0
   -4.7910   -2.8152    0.0347 N   0  0  0  0  0  0  0  0  0  0  0  0
   -7.1236   -2.8666    0.0514 N   0  0  0  0  0  0  0  0  0  0  0  0
   -7.1150   -4.3316    0.0493 C   0  0  0  0  0  0  0  0  0  0  0  0
   -8.5545   -4.8500    0.0589 C   0  0  0  0  0  0  0  0  0  0  0  0
   -8.5459   -6.3190    0.0569 N   0  3  0  0  0  0  0  0  0  0  0  0
   -7.9676   -6.8038   -1.2039 C   0  0  0  0  0  0  0  0  0  0  0  0
   -7.9596   -8.3345   -1.2035 C   0  0  0  0  0  0  0  0  0  0  0  0
   -9.2950   -8.8130   -1.0197 O   0  0  0  0  0  0  0  0  0  0  0  0
   -9.9106   -8.3478    0.1847 C   0  0  0  0  0  0  0  0  0  0  0  0
   -9.9222   -6.8171    0.1868 C   0  0  0  0  0  0  0  0  0  0  0  0
   -4.7388    1.4366    0.0401 C   0  0  0  0  0  0  0  0  0  0  0  0
   -4.7413    1.9489   -1.4016 C   0  0  0  0  0  0  0  0  0  0  0  0
   -3.4456    1.5248   -2.0959 C   0  0  0  0  0  0  0  0  0  0  0  0
   -3.4481    2.0371   -3.5376 C   0  0  0  0  0  0  0  0  0  0  0  0
   -3.5498    3.5637   -3.5361 C   0  0  0  0  0  0  0  0  0  0  0  0
   -4.8456    3.9879   -2.8418 C   0  0  0  0  0  0  0  0  0  0  0  0
   -4.8430    3.4755   -1.4002 C   0  0  0  0  0  0  0  0  0  0  0  0
    3.5863   -0.6210   -0.0378 F   0  0  0  0  0  0  0  0  0  0  0  0
    3.5375    2.1151   -0.0213 F   0  0  0  0  0  0  0  0  0  0  0  0
   -0.9590    1.9178    0.0260 H   0  0  0  0  0  0  0  0  0  0  0  0
    1.1546    3.1749    0.0081 H   0  0  0  0  0  0  0  0  0  0  0  0
    1.2410   -1.7607   -0.0204 H   0  0  0  0  0  0  0  0  0  0  0  0
   -0.2880   -2.6818    0.0003 H   0  0  0  0  0  0  0  0  0  0  0  0
   -2.4018   -3.9462    0.0145 H   0  0  0  0  0  0  0  0  0  0  0  0
   -7.9664   -2.3865    0.0580 H   0  0  0  0  0  0  0  0  0  0  0  0
   -6.6055   -4.6907   -0.8448 H   0  0  0  0  0  0  0  0  0  0  0  0
   -6.5927   -4.6931    0.9351 H   0  0  0  0  0  0  0  0  0  0  0  0
   -9.0641   -4.4909    0.9531 H   0  0  0  0  0  0  0  0  0  0  0  0
   -9.0768   -4.4885   -0.8269 H   0  0  0  0  0  0  0  0  0  0  0  0
   -8.5660   -6.4436   -2.0407 H   0  0  0  0  0  0  0  0  0  0  0  0
   -6.9466   -6.4349   -1.3012 H   0  0  0  0  0  0  0  0  0  0  0  0
   -7.5709   -8.6968   -2.1552 H   0  0  0  0  0  0  0  0  0  0  0  0
   -7.3288   -8.6950   -0.3909 H   0  0  0  0  0  0  0  0  0  0  0  0
  -10.9338   -8.7197    0.2376 H   0  0  0  0  0  0  0  0  0  0  0  0
   -9.3465   -8.7087    1.0447 H   0  0  0  0  0  0  0  0  0  0  0  0
  -10.3521   -6.4581    1.1219 H   0  0  0  0  0  0  0  0  0  0  0  0
  -10.5199   -6.4569   -0.6505 H   0  0  0  0  0  0  0  0  0  0  0  0
   -5.6191    1.8130    0.5610 H   0  0  0  0  0  0  0  0  0  0  0  0
   -3.8394    1.7850    0.5479 H   0  0  0  0  0  0  0  0  0  0  0  0
   -5.5938    1.5285   -1.9351 H   0  0  0  0  0  0  0  0  0  0  0  0
   -2.5931    1.9452   -1.5624 H   0  0  0  0  0  0  0  0  0  0  0  0
   -3.3731    0.4372   -2.0969 H   0  0  0  0  0  0  0  0  0  0  0  0
   -2.5250    1.7349   -4.0322 H   0  0  0  0  0  0  0  0  0  0  0  0
   -4.3006    1.6167   -4.0710 H   0  0  0  0  0  0  0  0  0  0  0  0
   -2.6974    3.9841   -3.0026 H   0  0  0  0  0  0  0  0  0  0  0  0
   -3.5517    3.9287   -4.5632 H   0  0  0  0  0  0  0  0  0  0  0  0
   -4.9181    5.0754   -2.8408 H   0  0  0  0  0  0  0  0  0  0  0  0
   -5.6981    3.5674   -3.3753 H   0  0  0  0  0  0  0  0  0  0  0  0
   -5.7662    3.7777   -0.9056 H   0  0  0  0  0  0  0  0  0  0  0  0
   -3.9906    3.8960   -0.8667 H   0  0  0  0  0  0  0  0  0  0  0  0
   -7.9926   -6.6533    0.8316 H   0  0  0  0  0  0  0  0  0  0  0  0
  1  6  2  0  0  0  0
  1  2  1  0  0  0  0
  1 36  1  0  0  0  0
  2  3  2  0  0  0  0
  2 37  1  0  0  0  0
  3  4  1  0  0  0  0
  3 35  1  0  0  0  0
  4  5  2  0  0  0  0
  4 34  1  0  0  0  0
  5  6  1  0  0  0  0
  5 38  1  0  0  0  0
  6  7  1  0  0  0  0
  7 12  2  0  0  0  0
  7  8  1  0  0  0  0
  8  9  2  0  0  0  0
  8 39  1  0  0  0  0
  9 10  1  0  0  0  0
  9 40  1  0  0  0  0
 10 17  1  0  0  0  0
 10 11  2  0  0  0  0
 11 12  1  0  0  0  0
 11 13  1  0  0  0  0
 13 14  1  0  0  0  0
 13 27  1  0  0  0  0
 14 15  2  0  0  0  0
 14 16  1  0  0  0  0
 16 17  2  0  0  0  0
 16 18  1  0  0  0  0
 18 19  1  0  0  0  0
 18 41  1  0  0  0  0
 19 20  1  0  0  0  0
 19 42  1  0  0  0  0
 19 43  1  0  0  0  0
 20 21  1  0  0  0  0
 20 44  1  0  0  0  0
 20 45  1  0  0  0  0
 21 26  1  0  0  0  0
 21 22  1  0  0  0  0
 21 67  1  0  0  0  0
 22 23  1  0  0  0  0
 22 46  1  0  0  0  0
 22 47  1  0  0  0  0
 23 24  1  0  0  0  0
 23 48  1  0  0  0  0
 23 49  1  0  0  0  0
 24 25  1  0  0  0  0
 25 26  1  0  0  0  0
 25 50  1  0  0  0  0
 25 51  1  0  0  0  0
 26 52  1  0  0  0  0
 26 53  1  0  0  0  0
 27 28  1  0  0  0  0
 27 54  1  0  0  0  0
 27 55  1  0  0  0  0
 28 33  1  0  0  0  0
 28 29  1  0  0  0  0
 28 56  1  0  0  0  0
 29 30  1  0  0  0  0
 29 57  1  0  0  0  0
 29 58  1  0  0  0  0
 30 31  1  0  0  0  0
 30 59  1  0  0  0  0
 30 60  1  0  0  0  0
 31 32  1  0  0  0  0
 31 61  1  0  0  0  0
 31 62  1  0  0  0  0
 32 33  1  0  0  0  0
 32 63  1  0  0  0  0
 32 64  1  0  0  0  0
 33 65  1  0  0  0  0
 33 66  1  0  0  0  0
M  CHG  1  21   1
M  END
$$$$
CHEMBL183150
  -OEChem-07121202283D

 70 74  0     0  0  0  0  0  0999 V2000
   -0.0187    1.5258    0.0104 C   0  0  0  0  0  0  0  0  0  0  0  0
    0.0021   -0.0041    0.0020 C   0  0  0  0  0  0  0  0  0  0  0  0
    0.6709   -0.4649   -1.1737 O   0  0  0  0  0  0  0  0  0  0  0  0
    0.7767   -1.8087   -1.3360 C   0  0  0  0  0  0  0  0  0  0  0  0
    0.2436   -2.6682   -0.3880 C   0  0  0  0  0  0  0  0  0  0  0  0
    0.3518   -4.0353   -0.5544 C   0  0  0  0  0  0  0  0  0  0  0  0
    0.9918   -4.5562   -1.6662 C   0  0  0  0  0  0  0  0  0  0  0  0
    1.5273   -3.7143   -2.6181 C   0  0  0  0  0  0  0  0  0  0  0  0
    1.4193   -2.3319   -2.4641 C   0  0  0  0  0  0  0  0  0  0  0  0
    1.9865   -1.4234   -3.4850 C   0  0  0  0  0  0  0  0  0  0  0  0
    1.8848   -0.1175   -3.3180 N   0  0  0  0  0  0  0  0  0  0  0  0
    2.3961    0.7171   -4.2376 C   0  0  0  0  0  0  0  0  0  0  0  0
    2.4589    2.0845   -4.3651 C   0  0  0  0  0  0  0  0  0  0  0  0
    3.0983    2.3583   -5.5073 N   0  0  0  0  0  0  0  0  0  0  0  0
    3.4404    1.2467   -6.1043 C   0  0  0  0  0  0  0  0  0  0  0  0
    3.0259    0.1936   -5.3538 N   0  0  0  0  0  0  0  0  0  0  0  0
    3.1112   -1.1664   -5.4909 C   0  0  0  0  0  0  0  0  0  0  0  0
    2.5998   -1.9428   -4.5613 N   0  0  0  0  0  0  0  0  0  0  0  0
    3.7189   -1.7048   -6.5685 O   0  5  0  0  0  0  0  0  0  0  0  0
    4.1766    1.1496   -7.4156 C   0  0  0  0  0  0  0  0  0  0  0  0
    1.9056    3.0940   -3.3924 C   0  0  0  0  0  0  0  0  0  0  0  0
    0.9051    4.0245   -4.1086 C   0  0  0  0  0  0  0  0  0  0  0  0
    1.1492    5.4120   -3.4649 C   0  0  0  0  0  0  0  0  0  0  0  0
    2.6862    5.4350   -3.2748 C   0  0  0  0  0  0  0  0  0  0  0  0
    3.0381    3.9908   -2.8624 C   0  0  0  0  0  0  0  0  0  0  0  0
    1.1231   -6.3020   -1.8653 S   0  0  0  0  0  0  0  0  0  0  0  0
    2.2423   -6.5313   -2.7105 O   0  0  0  0  0  0  0  0  0  0  0  0
    1.0212   -6.8678   -0.5658 O   0  0  0  0  0  0  0  0  0  0  0  0
   -0.2141   -6.8010   -2.7050 N   0  0  0  0  0  0  0  0  0  0  0  0
   -1.4446   -7.1932   -2.0011 C   0  0  0  0  0  0  0  0  0  0  0  0
   -2.6217   -6.4282   -2.6154 C   0  0  0  0  0  0  0  0  0  0  0  0
   -2.6400   -6.6480   -4.0678 N   0  0  0  0  0  0  0  0  0  0  0  0
   -1.4289   -6.1117   -4.7031 C   0  0  0  0  0  0  0  0  0  0  0  0
   -0.2049   -6.8579   -4.1747 C   0  0  0  0  0  0  0  0  0  0  0  0
   -3.8497   -6.0740   -4.6719 C   0  0  0  0  0  0  0  0  0  0  0  0
   -3.9597   -6.5325   -6.1274 C   0  0  0  0  0  0  0  0  0  0  0  0
   -4.1522   -7.9479   -6.1676 O   0  0  0  0  0  0  0  0  0  0  0  0
    1.0039    1.9031    0.0027 H   0  0  0  0  0  0  0  0  0  0  0  0
   -0.5459    1.8868   -0.8726 H   0  0  0  0  0  0  0  0  0  0  0  0
   -0.5289    1.8773    0.9072 H   0  0  0  0  0  0  0  0  0  0  0  0
    0.5293   -0.3651    0.8851 H   0  0  0  0  0  0  0  0  0  0  0  0
   -1.0205   -0.3814    0.0098 H   0  0  0  0  0  0  0  0  0  0  0  0
   -0.2566   -2.2686    0.4817 H   0  0  0  0  0  0  0  0  0  0  0  0
   -0.0647   -4.7013    0.1869 H   0  0  0  0  0  0  0  0  0  0  0  0
    2.0264   -4.1245   -3.4835 H   0  0  0  0  0  0  0  0  0  0  0  0
    5.2503    1.1317   -7.2291 H   0  0  0  0  0  0  0  0  0  0  0  0
    3.8820    0.2353   -7.9308 H   0  0  0  0  0  0  0  0  0  0  0  0
    3.9298    2.0116   -8.0355 H   0  0  0  0  0  0  0  0  0  0  0  0
    1.4147    2.5835   -2.5639 H   0  0  0  0  0  0  0  0  0  0  0  0
    1.1135    4.0581   -5.1779 H   0  0  0  0  0  0  0  0  0  0  0  0
   -0.1182    3.6952   -3.9285 H   0  0  0  0  0  0  0  0  0  0  0  0
    0.8309    6.2103   -4.1353 H   0  0  0  0  0  0  0  0  0  0  0  0
    0.6401    5.4871   -2.5040 H   0  0  0  0  0  0  0  0  0  0  0  0
    3.1823    5.6964   -4.2096 H   0  0  0  0  0  0  0  0  0  0  0  0
    2.9627    6.1351   -2.4864 H   0  0  0  0  0  0  0  0  0  0  0  0
    3.0962    3.9162   -1.7765 H   0  0  0  0  0  0  0  0  0  0  0  0
    3.9878    3.6959   -3.3086 H   0  0  0  0  0  0  0  0  0  0  0  0
   -1.6054   -8.2653   -2.1146 H   0  0  0  0  0  0  0  0  0  0  0  0
   -1.3571   -6.9431   -0.9438 H   0  0  0  0  0  0  0  0  0  0  0  0
   -3.5549   -6.7871   -2.1815 H   0  0  0  0  0  0  0  0  0  0  0  0
   -2.5104   -5.3635   -2.4101 H   0  0  0  0  0  0  0  0  0  0  0  0
   -1.4971   -6.2411   -5.7833 H   0  0  0  0  0  0  0  0  0  0  0  0
   -1.3343   -5.0514   -4.4687 H   0  0  0  0  0  0  0  0  0  0  0  0
    0.7017   -6.3862   -4.5537 H   0  0  0  0  0  0  0  0  0  0  0  0
   -0.2443   -7.8971   -4.5011 H   0  0  0  0  0  0  0  0  0  0  0  0
   -4.7266   -6.4093   -4.1181 H   0  0  0  0  0  0  0  0  0  0  0  0
   -3.7921   -4.9861   -4.6371 H   0  0  0  0  0  0  0  0  0  0  0  0
   -4.8070   -6.0370   -6.6014 H   0  0  0  0  0  0  0  0  0  0  0  0
   -3.0440   -6.2751   -6.6597 H   0  0  0  0  0  0  0  0  0  0  0  0
   -4.2305   -8.3090   -7.0613 H   0  0  0  0  0  0  0  0  0  0  0  0
  1  2  1  0  0  0  0
  1 38  1  0  0  0  0
  1 39  1  0  0  0  0
  1 40  1  0  0  0  0
  2  3  1  0  0  0  0
  2 41  1  0  0  0  0
  2 42  1  0  0  0  0
  3  4  1  0  0  0  0
  4  9  2  0  0  0  0
  4  5  1  0  0  0  0
  5  6  2  0  0  0  0
  5 43  1  0  0  0  0
  6  7  1  0  0  0  0
  6 44  1  0  0  0  0
  7  8  2  0  0  0  0
  7 26  1  0  0  0  0
  8  9  1  0  0  0  0
  8 45  1  0  0  0  0
  9 10  1  0  0  0  0
 10 18  1  0  0  0  0
 10 11  2  0  0  0  0
 11 12  1  0  0  0  0
 12 16  1  0  0  0  0
 12 13  2  0  0  0  0
 13 14  1  0  0  0  0
 13 21  1  0  0  0  0
 14 15  2  0  0  0  0
 15 16  1  0  0  0  0
 15 20  1  0  0  0  0
 16 17  1  0  0  0  0
 17 18  2  0  0  0  0
 17 19  1  0  0  0  0
 20 46  1  0  0  0  0
 20 47  1  0  0  0  0
 20 48  1  0  0  0  0
 21 25  1  0  0  0  0
 21 22  1  0  0  0  0
 21 49  1  0  0  0  0
 22 23  1  0  0  0  0
 22 50  1  0  0  0  0
 22 51  1  0  0  0  0
 23 24  1  0  0  0  0
 23 52  1  0  0  0  0
 23 53  1  0  0  0  0
 24 25  1  0  0  0  0
 24 54  1  0  0  0  0
 24 55  1  0  0  0  0
 25 56  1  0  0  0  0
 25 57  1  0  0  0  0
 26 27  2  0  0  0  0
 26 28  2  0  0  0  0
 26 29  1  0  0  0  0
 29 34  1  0  0  0  0
 29 30  1  0  0  0  0
 30 31  1  0  0  0  0
 30 58  1  0  0  0  0
 30 59  1  0  0  0  0
 31 32  1  0  0  0  0
 31 60  1  0  0  0  0
 31 61  1  0  0  0  0
 32 33  1  0  0  0  0
 32 35  1  0  0  0  0
 33 34  1  0  0  0  0
 33 62  1  0  0  0  0
 33 63  1  0  0  0  0
 34 64  1  0  0  0  0
 34 65  1  0  0  0  0
 35 36  1  0  0  0  0
 35 66  1  0  0  0  0
 35 67  1  0  0  0  0
 36 37  1  0  0  0  0
 36 68  1  0  0  0  0
 36 69  1  0  0  0  0
 37 70  1  0  0  0  0
M  CHG  1  19  -1
M  END
$$$$
CHEMBL183150
  -OEChem-07121202283D

 71 75  0     0  0  0  0  0  0999 V2000
   -0.0187    1.5258    0.0104 C   0  0  0  0  0  0  0  0  0  0  0  0
    0.0021   -0.0041    0.0020 C   0  0  0  0  0  0  0  0  0  0  0  0
   -1.3386   -0.4987    0.0122 O   0  0  0  0  0  0  0  0  0  0  0  0
   -1.4980   -1.8459    0.0064 C   0  0  0  0  0  0  0  0  0  0  0  0
   -0.3892   -2.6786   -0.0029 C   0  0  0  0  0  0  0  0  0  0  0  0
   -0.5529   -4.0496   -0.0092 C   0  0  0  0  0  0  0  0  0  0  0  0
   -1.8227   -4.6042   -0.0063 C   0  0  0  0  0  0  0  0  0  0  0  0
   -2.9359   -3.7926    0.0030 C   0  0  0  0  0  0  0  0  0  0  0  0
   -2.7850   -2.4029    0.0157 C   0  0  0  0  0  0  0  0  0  0  0  0
   -3.9710   -1.5286    0.0318 C   0  0  0  0  0  0  0  0  0  0  0  0
   -5.2220   -2.0805    0.0465 N   0  0  0  0  0  0  0  0  0  0  0  0
   -6.3248   -1.2364    0.0619 C   0  0  0  0  0  0  0  0  0  0  0  0
   -7.6598   -1.4350    0.0784 C   0  0  0  0  0  0  0  0  0  0  0  0
   -8.2592   -0.2337    0.0881 N   0  0  0  0  0  0  0  0  0  0  0  0
   -7.3545    0.7071    0.0785 C   0  0  0  0  0  0  0  0  0  0  0  0
   -6.1234    0.1266    0.0620 N   0  0  0  0  0  0  0  0  0  0  0  0
   -4.8689    0.6102    0.0475 C   0  0  0  0  0  0  0  0  0  0  0  0
   -3.8192   -0.2157    0.0375 N   0  0  0  0  0  0  0  0  0  0  0  0
   -4.6877    1.8143    0.0471 O   0  0  0  0  0  0  0  0  0  0  0  0
   -7.6275    2.1892    0.0852 C   0  0  0  0  0  0  0  0  0  0  0  0
   -8.3559   -2.7716    0.0846 C   0  0  0  0  0  0  0  0  0  0  0  0
   -9.3122   -2.8751   -1.1215 C   0  0  0  0  0  0  0  0  0  0  0  0
  -10.5346   -3.6511   -0.5715 C   0  0  0  0  0  0  0  0  0  0  0  0
  -10.6786   -3.0889    0.8646 C   0  0  0  0  0  0  0  0  0  0  0  0
   -9.2247   -2.9076    1.3473 C   0  0  0  0  0  0  0  0  0  0  0  0
   -2.0146   -6.3557   -0.0150 S   0  0  0  0  0  0  0  0  0  0  0  0
   -3.2993   -6.6209   -0.5613 O   0  0  0  0  0  0  0  0  0  0  0  0
   -0.8235   -6.8920   -0.5744 O   0  0  0  0  0  0  0  0  0  0  0  0
   -2.0605   -6.8511    1.5645 N   0  0  0  0  0  0  0  0  0  0  0  0
   -0.8260   -7.2086    2.2797 C   0  0  0  0  0  0  0  0  0  0  0  0
   -0.7901   -6.4382    3.6039 C   0  0  0  0  0  0  0  0  0  0  0  0
   -2.0328   -6.6886    4.3462 N   0  0  0  0  0  0  0  0  0  0  0  0
   -3.2021   -6.1854    3.6131 C   0  0  0  0  0  0  0  0  0  0  0  0
   -3.3361   -6.9396    2.2912 C   0  0  0  0  0  0  0  0  0  0  0  0
   -1.9668   -6.1084    5.6942 C   0  0  0  0  0  0  0  0  0  0  0  0
   -3.1600   -6.5962    6.5183 C   0  0  0  0  0  0  0  0  0  0  0  0
   -3.0613   -8.0089    6.7095 O   0  0  0  0  0  0  0  0  0  0  0  0
    1.0039    1.9031    0.0027 H   0  0  0  0  0  0  0  0  0  0  0  0
   -0.5459    1.8868   -0.8726 H   0  0  0  0  0  0  0  0  0  0  0  0
   -0.5289    1.8773    0.9072 H   0  0  0  0  0  0  0  0  0  0  0  0
    0.5123   -0.3556   -0.8948 H   0  0  0  0  0  0  0  0  0  0  0  0
    0.5293   -0.3651    0.8851 H   0  0  0  0  0  0  0  0  0  0  0  0
    0.6039   -2.2541   -0.0056 H   0  0  0  0  0  0  0  0  0  0  0  0
    0.3140   -4.6936   -0.0168 H   0  0  0  0  0  0  0  0  0  0  0  0
   -3.9237   -4.2294    0.0045 H   0  0  0  0  0  0  0  0  0  0  0  0
   -7.6797    2.5444    1.1144 H   0  0  0  0  0  0  0  0  0  0  0  0
   -6.8250    2.7088   -0.4383 H   0  0  0  0  0  0  0  0  0  0  0  0
   -8.5753    2.3863   -0.4157 H   0  0  0  0  0  0  0  0  0  0  0  0
   -7.6206   -3.5754    0.0490 H   0  0  0  0  0  0  0  0  0  0  0  0
   -9.6106   -1.8822   -1.4580 H   0  0  0  0  0  0  0  0  0  0  0  0
   -8.8427   -3.4292   -1.9342 H   0  0  0  0  0  0  0  0  0  0  0  0
  -11.4257   -3.4366   -1.1615 H   0  0  0  0  0  0  0  0  0  0  0  0
  -10.3338   -4.7222   -0.5487 H   0  0  0  0  0  0  0  0  0  0  0  0
  -11.1976   -2.1305    0.8488 H   0  0  0  0  0  0  0  0  0  0  0  0
  -11.2062   -3.7991    1.5012 H   0  0  0  0  0  0  0  0  0  0  0  0
   -8.9115   -3.7779    1.9241 H   0  0  0  0  0  0  0  0  0  0  0  0
   -9.1428   -2.0068    1.9556 H   0  0  0  0  0  0  0  0  0  0  0  0
   -0.8155   -8.2801    2.4791 H   0  0  0  0  0  0  0  0  0  0  0  0
    0.0393   -6.9374    1.6748 H   0  0  0  0  0  0  0  0  0  0  0  0
    0.0613   -6.7729    4.1965 H   0  0  0  0  0  0  0  0  0  0  0  0
   -0.6961   -5.3713    3.4015 H   0  0  0  0  0  0  0  0  0  0  0  0
   -4.0999   -6.3367    4.2124 H   0  0  0  0  0  0  0  0  0  0  0  0
   -3.0744   -5.1220    3.4106 H   0  0  0  0  0  0  0  0  0  0  0  0
   -4.1297   -6.4906    1.6938 H   0  0  0  0  0  0  0  0  0  0  0  0
   -3.5716   -7.9848    2.4917 H   0  0  0  0  0  0  0  0  0  0  0  0
   -1.0403   -6.4178    6.1779 H   0  0  0  0  0  0  0  0  0  0  0  0
   -1.9942   -5.0211    5.6234 H   0  0  0  0  0  0  0  0  0  0  0  0
   -3.1603   -6.0974    7.4875 H   0  0  0  0  0  0  0  0  0  0  0  0
   -4.0851   -6.3648    5.9903 H   0  0  0  0  0  0  0  0  0  0  0  0
   -3.7864   -8.3876    7.2251 H   0  0  0  0  0  0  0  0  0  0  0  0
   -5.3370   -3.0436    0.0458 H   0  0  0  0  0  0  0  0  0  0  0  0
  1  2  1  0  0  0  0
  1 38  1  0  0  0  0
  1 39  1  0  0  0  0
  1 40  1  0  0  0  0
  2  3  1  0  0  0  0
  2 41  1  0  0  0  0
  2 42  1  0  0  0  0
  3  4  1  0  0  0  0
  4  9  2  0  0  0  0
  4  5  1  0  0  0  0
  5  6  2  0  0  0  0
  5 43  1  0  0  0  0
  6  7  1  0  0  0  0
  6 44  1  0  0  0  0
  7  8  2  0  0  0  0
  7 26  1  0  0  0  0
  8  9  1  0  0  0  0
  8 45  1  0  0  0  0
  9 10  1  0  0  0  0
 10 18  2  0  0  0  0
 10 11  1  0  0  0  0
 11 12  1  0  0  0  0
 11 71  1  0  0  0  0
 12 16  1  0  0  0  0
 12 13  2  0  0  0  0
 13 14  1  0  0  0  0
 13 21  1  0  0  0  0
 14 15  2  0  0  0  0
 15 16  1  0  0  0  0
 15 20  1  0  0  0  0
 16 17  1  0  0  0  0
 17 18  1  0  0  0  0
 17 19  2  0  0  0  0
 20 46  1  0  0  0  0
 20 47  1  0  0  0  0
 20 48  1  0  0  0  0
 21 25  1  0  0  0  0
 21 22  1  0  0  0  0
 21 49  1  0  0  0  0
 22 23  1  0  0  0  0
 22 50  1  0  0  0  0
 22 51  1  0  0  0  0
 23 24  1  0  0  0  0
 23 52  1  0  0  0  0
 23 53  1  0  0  0  0
 24 25  1  0  0  0  0
 24 54  1  0  0  0  0
 24 55  1  0  0  0  0
 25 56  1  0  0  0  0
 25 57  1  0  0  0  0
 26 27  2  0  0  0  0
 26 28  2  0  0  0  0
 26 29  1  0  0  0  0
 29 34  1  0  0  0  0
 29 30  1  0  0  0  0
 30 31  1  0  0  0  0
 30 58  1  0  0  0  0
 30 59  1  0  0  0  0
 31 32  1  0  0  0  0
 31 60  1  0  0  0  0
 31 61  1  0  0  0  0
 32 33  1  0  0  0  0
 32 35  1  0  0  0  0
 33 34  1  0  0  0  0
 33 62  1  0  0  0  0
 33 63  1  0  0  0  0
 34 64  1  0  0  0  0
 34 65  1  0  0  0  0
 35 36  1  0  0  0  0
 35 66  1  0  0  0  0
 35 67  1  0  0  0  0
 36 37  1  0  0  0  0
 36 68  1  0  0  0  0
 36 69  1  0  0  0  0
 37 70  1  0  0  0  0
M  END
$$$$
CHEMBL87304
  -OEChem-07121202283D

 65 69  0     0  0  0  0  0  0999 V2000
   -0.0187    1.5258    0.0104 C   0  0  0  0  0  0  0  0  0  0  0  0
    0.0021   -0.0041    0.0020 C   0  0  0  0  0  0  0  0  0  0  0  0
    0.6709   -0.4649   -1.1737 O   0  0  0  0  0  0  0  0  0  0  0  0
    0.7766   -1.8085   -1.3360 C   0  0  0  0  0  0  0  0  0  0  0  0
    0.2436   -2.6681   -0.3881 C   0  0  0  0  0  0  0  0  0  0  0  0
    0.3518   -4.0352   -0.5544 C   0  0  0  0  0  0  0  0  0  0  0  0
    0.9914   -4.5568   -1.6664 C   0  0  0  0  0  0  0  0  0  0  0  0
    1.5271   -3.7159   -2.6186 C   0  0  0  0  0  0  0  0  0  0  0  0
    1.4198   -2.3322   -2.4649 C   0  0  0  0  0  0  0  0  0  0  0  0
    1.9858   -1.4262   -3.4839 C   0  0  0  0  0  0  0  0  0  0  0  0
    1.9521   -0.1084   -3.4368 N   0  0  0  0  0  0  0  0  0  0  0  0
    2.7991   -2.7319   -4.9001 H   0  0  0  0  0  0  0  0  0  0  0  0
    2.5528    0.3987   -4.5125 C   0  0  0  0  0  0  0  0  0  0  0  0
    2.9946   -0.6675   -5.2896 C   0  0  0  0  0  0  0  0  0  0  0  0
    2.6303   -1.8194   -4.6176 N   0  0  0  0  0  0  0  0  0  0  0  0
    3.6716   -0.4028   -6.4980 C   0  0  0  0  0  0  0  0  0  0  0  0
    4.0676   -1.3197   -7.1956 O   0  0  0  0  0  0  0  0  0  0  0  0
    3.8754    0.8769   -6.8731 N   0  0  0  0  0  0  0  0  0  0  0  0
    3.4436    1.8984   -6.1136 C   0  0  0  0  0  0  0  0  0  0  0  0
    3.6452    3.0388   -6.4843 O   0  0  0  0  0  0  0  0  0  0  0  0
    2.7934    1.6910   -4.9533 N   0  0  0  0  0  0  0  0  0  0  0  0
    2.3389    2.8325   -4.1554 C   0  0  0  0  0  0  0  0  0  0  0  0
    3.4382    3.2368   -3.1711 C   0  0  0  0  0  0  0  0  0  0  0  0
    3.1334    3.1034   -1.6778 C   0  0  0  0  0  0  0  0  0  0  0  0
    3.2024    4.4886   -2.3237 C   0  0  0  0  0  0  0  0  0  0  0  0
    4.5785    1.1576   -8.1273 C   0  0  0  0  0  0  0  0  0  0  0  0
    1.1217   -6.3028   -1.8649 S   0  0  0  0  0  0  0  0  0  0  0  0
    2.2405   -6.5331   -2.7102 O   0  0  0  0  0  0  0  0  0  0  0  0
    1.0197   -6.8680   -0.5651 O   0  0  0  0  0  0  0  0  0  0  0  0
   -0.2161   -6.8013   -2.7041 N   0  0  0  0  0  0  0  0  0  0  0  0
   -1.4466   -7.1925   -1.9997 C   0  0  0  0  0  0  0  0  0  0  0  0
   -2.6234   -6.4271   -2.6141 C   0  0  0  0  0  0  0  0  0  0  0  0
   -2.6421   -6.6475   -4.0663 N   0  0  0  0  0  0  0  0  0  0  0  0
   -1.4309   -6.1121   -4.7022 C   0  0  0  0  0  0  0  0  0  0  0  0
   -0.2072   -6.8588   -4.1737 C   0  0  0  0  0  0  0  0  0  0  0  0
   -3.8517   -6.0730   -4.6704 C   0  0  0  0  0  0  0  0  0  0  0  0
    1.0039    1.9031    0.0027 H   0  0  0  0  0  0  0  0  0  0  0  0
   -0.5459    1.8868   -0.8726 H   0  0  0  0  0  0  0  0  0  0  0  0
   -0.5289    1.8773    0.9072 H   0  0  0  0  0  0  0  0  0  0  0  0
    0.5293   -0.3651    0.8851 H   0  0  0  0  0  0  0  0  0  0  0  0
   -1.0205   -0.3814    0.0098 H   0  0  0  0  0  0  0  0  0  0  0  0
   -0.2566   -2.2685    0.4817 H   0  0  0  0  0  0  0  0  0  0  0  0
   -0.0645   -4.7009    0.1872 H   0  0  0  0  0  0  0  0  0  0  0  0
    2.0257   -4.1269   -3.4840 H   0  0  0  0  0  0  0  0  0  0  0  0
    2.1155    3.6710   -4.8151 H   0  0  0  0  0  0  0  0  0  0  0  0
    1.4408    2.5554   -3.6033 H   0  0  0  0  0  0  0  0  0  0  0  0
    4.4586    3.0344   -3.4969 H   0  0  0  0  0  0  0  0  0  0  0  0
    2.1496    2.7276   -1.3965 H   0  0  0  0  0  0  0  0  0  0  0  0
    3.9532    2.8131   -1.0207 H   0  0  0  0  0  0  0  0  0  0  0  0
    4.0676    5.1097   -2.0916 H   0  0  0  0  0  0  0  0  0  0  0  0
    2.2640    5.0242   -2.4674 H   0  0  0  0  0  0  0  0  0  0  0  0
    4.8535    0.2186   -8.6077 H   0  0  0  0  0  0  0  0  0  0  0  0
    3.9267    1.7273   -8.7896 H   0  0  0  0  0  0  0  0  0  0  0  0
    5.4785    1.7358   -7.9178 H   0  0  0  0  0  0  0  0  0  0  0  0
   -1.6081   -8.2646   -2.1128 H   0  0  0  0  0  0  0  0  0  0  0  0
   -1.3587   -6.9421   -0.9426 H   0  0  0  0  0  0  0  0  0  0  0  0
   -3.5567   -6.7853   -2.1797 H   0  0  0  0  0  0  0  0  0  0  0  0
   -2.5115   -5.3624   -2.4092 H   0  0  0  0  0  0  0  0  0  0  0  0
   -1.4994   -6.2419   -5.7823 H   0  0  0  0  0  0  0  0  0  0  0  0
   -1.3356   -5.0518   -4.4682 H   0  0  0  0  0  0  0  0  0  0  0  0
    0.6996   -6.3879   -4.5531 H   0  0  0  0  0  0  0  0  0  0  0  0
   -0.2473   -7.8982   -4.4997 H   0  0  0  0  0  0  0  0  0  0  0  0
   -3.8789   -5.0002   -4.4793 H   0  0  0  0  0  0  0  0  0  0  0  0
   -3.8401   -6.2503   -5.7458 H   0  0  0  0  0  0  0  0  0  0  0  0
   -4.7336   -6.5422   -4.2343 H   0  0  0  0  0  0  0  0  0  0  0  0
  1  2  1  0  0  0  0
  1 37  1  0  0  0  0
  1 38  1  0  0  0  0
  1 39  1  0  0  0  0
  2  3  1  0  0  0  0
  2 40  1  0  0  0  0
  2 41  1  0  0  0  0
  3  4  1  0  0  0  0
  4  9  2  0  0  0  0
  4  5  1  0  0  0  0
  5  6  2  0  0  0  0
  5 42  1  0  0  0  0
  6  7  1  0  0  0  0
  6 43  1  0  0  0  0
  7  8  2  0  0  0  0
  7 27  1  0  0  0  0
  8  9  1  0  0  0  0
  8 44  1  0  0  0  0
  9 10  1  0  0  0  0
 10 15  1  0  0  0  0
 10 11  2  0  0  0  0
 11 13  1  0  0  0  0
 12 15  1  0  0  0  0
 13 21  1  0  0  0  0
 13 14  2  0  0  0  0
 14 16  1  0  0  0  0
 14 15  1  0  0  0  0
 16 18  1  0  0  0  0
 16 17  2  0  0  0  0
 18 19  1  0  0  0  0
 18 26  1  0  0  0  0
 19 21  1  0  0  0  0
 19 20  2  0  0  0  0
 21 22  1  0  0  0  0
 22 23  1  0  0  0  0
 22 45  1  0  0  0  0
 22 46  1  0  0  0  0
 23 25  1  0  0  0  0
 23 24  1  0  0  0  0
 23 47  1  0  0  0  0
 24 25  1  0  0  0  0
 24 48  1  0  0  0  0
 24 49  1  0  0  0  0
 25 50  1  0  0  0  0
 25 51  1  0  0  0  0
 26 52  1  0  0  0  0
 26 53  1  0  0  0  0
 26 54  1  0  0  0  0
 27 28  2  0  0  0  0
 27 29  2  0  0  0  0
 27 30  1  0  0  0  0
 30 35  1  0  0  0  0
 30 31  1  0  0  0  0
 31 32  1  0  0  0  0
 31 55  1  0  0  0  0
 31 56  1  0  0  0  0
 32 33  1  0  0  0  0
 32 57  1  0  0  0  0
 32 58  1  0  0  0  0
 33 34  1  0  0  0  0
 33 36  1  0  0  0  0
 34 35  1  0  0  0  0
 34 59  1  0  0  0  0
 34 60  1  0  0  0  0
 35 61  1  0  0  0  0
 35 62  1  0  0  0  0
 36 63  1  0  0  0  0
 36 64  1  0  0  0  0
 36 65  1  0  0  0  0
M  END
$$$$
CHEMBL87304
  -OEChem-07121202283D

 66 70  0     0  0  0  0  0  0999 V2000
   -0.0187    1.5258    0.0104 C   0  0  0  0  0  0  0  0  0  0  0  0
    0.0021   -0.0041    0.0020 C   0  0  0  0  0  0  0  0  0  0  0  0
    0.6932   -0.4774    1.1597 O   0  0  0  0  0  0  0  0  0  0  0  0
    0.8019   -1.8227    1.3055 C   0  0  0  0  0  0  0  0  0  0  0  0
    0.2607   -2.6719    0.3529 C   0  0  0  0  0  0  0  0  0  0  0  0
    0.3720   -4.0407    0.5024 C   0  0  0  0  0  0  0  0  0  0  0  0
    1.0235   -4.5744    1.6017 C   0  0  0  0  0  0  0  0  0  0  0  0
    1.5673   -3.7439    2.5584 C   0  0  0  0  0  0  0  0  0  0  0  0
    1.4664   -2.3585    2.4163 C   0  0  0  0  0  0  0  0  0  0  0  0
    2.0518   -1.4633    3.4340 C   0  0  0  0  0  0  0  0  0  0  0  0
    2.0074   -0.1453    3.4075 N   0  0  0  0  0  0  0  0  0  0  0  0
    2.8923   -2.7841    4.8200 H   0  0  0  0  0  0  0  0  0  0  0  0
    2.6309    0.3504    4.4755 C   0  0  0  0  0  0  0  0  0  0  0  0
    3.0997   -0.7239    5.2253 C   0  0  0  0  0  0  0  0  0  0  0  0
    2.7178   -1.8687    4.5509 N   0  0  0  0  0  0  0  0  0  0  0  0
    3.8038   -0.4721    6.4209 C   0  0  0  0  0  0  0  0  0  0  0  0
    4.2244   -1.3961    7.0942 O   0  0  0  0  0  0  0  0  0  0  0  0
    4.0069    0.8035    6.8105 N   0  0  0  0  0  0  0  0  0  0  0  0
    3.5490    1.8327    6.0774 C   0  0  0  0  0  0  0  0  0  0  0  0
    3.7516    2.9691    6.4600 O   0  0  0  0  0  0  0  0  0  0  0  0
    2.8723    1.6377    4.9301 N   0  0  0  0  0  0  0  0  0  0  0  0
    2.3907    2.7875    4.1605 C   0  0  0  0  0  0  0  0  0  0  0  0
    0.9826    3.1606    4.6284 C   0  0  0  0  0  0  0  0  0  0  0  0
   -0.1564    3.0297    3.6151 C   0  0  0  0  0  0  0  0  0  0  0  0
    0.3470    4.4150    4.0255 C   0  0  0  0  0  0  0  0  0  0  0  0
    4.7374    1.0708    8.0519 C   0  0  0  0  0  0  0  0  0  0  0  0
    1.1575   -6.3223    1.7789 S   0  0  0  0  0  0  0  0  0  0  0  0
    1.3341   -6.5777    3.1655 O   0  0  0  0  0  0  0  0  0  0  0  0
    0.0916   -6.8894    1.0295 O   0  0  0  0  0  0  0  0  0  0  0  0
    2.5605   -6.7842    1.0302 N   0  0  0  0  0  0  0  0  0  0  0  0
    2.5731   -7.1471   -0.3954 C   0  0  0  0  0  0  0  0  0  0  0  0
    3.6942   -6.3637   -1.0862 C   0  0  0  0  0  0  0  0  0  0  0  0
    4.9626   -6.6072   -0.3876 N   0  3  0  0  0  0  0  0  0  0  0  0
    4.8915   -6.0736    0.9786 C   0  0  0  0  0  0  0  0  0  0  0  0
    3.8308   -6.8373    1.7703 C   0  0  0  0  0  0  0  0  0  0  0  0
    6.0545   -5.9452   -1.1138 C   0  0  0  0  0  0  0  0  0  0  0  0
    1.0039    1.9031    0.0027 H   0  0  0  0  0  0  0  0  0  0  0  0
   -0.5459    1.8868   -0.8726 H   0  0  0  0  0  0  0  0  0  0  0  0
   -0.5289    1.8773    0.9072 H   0  0  0  0  0  0  0  0  0  0  0  0
   -1.0205   -0.3814    0.0098 H   0  0  0  0  0  0  0  0  0  0  0  0
    0.5123   -0.3556   -0.8948 H   0  0  0  0  0  0  0  0  0  0  0  0
   -0.2488   -2.2630   -0.5070 H   0  0  0  0  0  0  0  0  0  0  0  0
   -0.0519   -4.6983   -0.2421 H   0  0  0  0  0  0  0  0  0  0  0  0
    2.0741   -4.1642    3.4145 H   0  0  0  0  0  0  0  0  0  0  0  0
    3.0606    3.6336    4.3137 H   0  0  0  0  0  0  0  0  0  0  0  0
    2.3656    2.5310    3.1014 H   0  0  0  0  0  0  0  0  0  0  0  0
    0.7580    2.9338    5.6706 H   0  0  0  0  0  0  0  0  0  0  0  0
    0.0975    2.6777    2.6152 H   0  0  0  0  0  0  0  0  0  0  0  0
   -1.1306    2.7166    3.9907 H   0  0  0  0  0  0  0  0  0  0  0  0
   -0.2960    5.0133    4.6710 H   0  0  0  0  0  0  0  0  0  0  0  0
    0.9321    4.9745    3.2955 H   0  0  0  0  0  0  0  0  0  0  0  0
    5.0306    0.1269    8.5114 H   0  0  0  0  0  0  0  0  0  0  0  0
    5.6279    1.6590    7.8301 H   0  0  0  0  0  0  0  0  0  0  0  0
    4.0972    1.6254    8.7379 H   0  0  0  0  0  0  0  0  0  0  0  0
    2.7559   -8.2167   -0.4994 H   0  0  0  0  0  0  0  0  0  0  0  0
    1.6149   -6.8906   -0.8471 H   0  0  0  0  0  0  0  0  0  0  0  0
    3.7813   -6.6909   -2.1222 H   0  0  0  0  0  0  0  0  0  0  0  0
    3.4632   -5.2988   -1.0595 H   0  0  0  0  0  0  0  0  0  0  0  0
    5.8608   -6.1871    1.4640 H   0  0  0  0  0  0  0  0  0  0  0  0
    4.6243   -5.0175    0.9428 H   0  0  0  0  0  0  0  0  0  0  0  0
    3.7036   -6.3760    2.7496 H   0  0  0  0  0  0  0  0  0  0  0  0
    4.1427   -7.8750    1.8886 H   0  0  0  0  0  0  0  0  0  0  0  0
    5.8635   -4.8729   -1.1584 H   0  0  0  0  0  0  0  0  0  0  0  0
    6.9967   -6.1252   -0.5961 H   0  0  0  0  0  0  0  0  0  0  0  0
    6.1134   -6.3461   -2.1256 H   0  0  0  0  0  0  0  0  0  0  0  0
    5.1397   -7.5998   -0.3508 H   0  0  0  0  0  0  0  0  0  0  0  0
  1  2  1  0  0  0  0
  1 37  1  0  0  0  0
  1 38  1  0  0  0  0
  1 39  1  0  0  0  0
  2  3  1  0  0  0  0
  2 40  1  0  0  0  0
  2 41  1  0  0  0  0
  3  4  1  0  0  0  0
  4  9  2  0  0  0  0
  4  5  1  0  0  0  0
  5  6  2  0  0  0  0
  5 42  1  0  0  0  0
  6  7  1  0  0  0  0
  6 43  1  0  0  0  0
  7  8  2  0  0  0  0
  7 27  1  0  0  0  0
  8  9  1  0  0  0  0
  8 44  1  0  0  0  0
  9 10  1  0  0  0  0
 10 15  1  0  0  0  0
 10 11  2  0  0  0  0
 11 13  1  0  0  0  0
 12 15  1  0  0  0  0
 13 21  1  0  0  0  0
 13 14  2  0  0  0  0
 14 16  1  0  0  0  0
 14 15  1  0  0  0  0
 16 18  1  0  0  0  0
 16 17  2  0  0  0  0
 18 19  1  0  0  0  0
 18 26  1  0  0  0  0
 19 21  1  0  0  0  0
 19 20  2  0  0  0  0
 21 22  1  0  0  0  0
 22 23  1  0  0  0  0
 22 45  1  0  0  0  0
 22 46  1  0  0  0  0
 23 25  1  0  0  0  0
 23 24  1  0  0  0  0
 23 47  1  0  0  0  0
 24 25  1  0  0  0  0
 24 48  1  0  0  0  0
 24 49  1  0  0  0  0
 25 50  1  0  0  0  0
 25 51  1  0  0  0  0
 26 52  1  0  0  0  0
 26 53  1  0  0  0  0
 26 54  1  0  0  0  0
 27 28  2  0  0  0  0
 27 29  2  0  0  0  0
 27 30  1  0  0  0  0
 30 35  1  0  0  0  0
 30 31  1  0  0  0  0
 31 32  1  0  0  0  0
 31 55  1  0  0  0  0
 31 56  1  0  0  0  0
 32 33  1  0  0  0  0
 32 57  1  0  0  0  0
 32 58  1  0  0  0  0
 33 34  1  0  0  0  0
 33 36  1  0  0  0  0
 33 66  1  0  0  0  0
 34 35  1  0  0  0  0
 34 59  1  0  0  0  0
 34 60  1  0  0  0  0
 35 61  1  0  0  0  0
 35 62  1  0  0  0  0
 36 63  1  0  0  0  0
 36 64  1  0  0  0  0
 36 65  1  0  0  0  0
M  CHG  1  33   1
M  END
$$$$
CHEMBL39065
  -OEChem-07121202283D

 59 62  0     0  0  0  0  0  0999 V2000
   -4.1324   -3.8288    2.1361 C   0  0  0  0  0  0  0  0  0  0  0  0
   -2.8594   -4.6721    2.2325 C   0  0  0  0  0  0  0  0  0  0  0  0
   -1.6966   -3.7864    2.5992 C   0  0  0  0  0  0  0  0  0  0  0  0
   -0.9018   -3.2736    1.6239 C   0  0  0  0  0  0  0  0  0  0  0  0
    0.1878   -2.4455    1.9428 C   0  0  0  0  0  0  0  0  0  0  0  0
    0.4688   -2.1380    3.2674 C   0  0  0  0  0  0  0  0  0  0  0  0
   -0.3417   -2.6589    4.2805 C   0  0  0  0  0  0  0  0  0  0  0  0
   -1.4409   -3.4883    3.9490 C   0  0  0  0  0  0  0  0  0  0  0  0
   -2.2234   -3.9868    4.9159 N   0  0  0  0  0  0  0  0  0  0  0  0
   -2.0137   -3.7299    6.1818 C   0  0  0  0  0  0  0  0  0  0  0  0
   -0.9522   -2.9137    6.6025 C   0  0  0  0  0  0  0  0  0  0  0  0
   -0.0858   -2.3669    5.6437 C   0  0  0  0  0  0  0  0  0  0  0  0
    0.9677   -1.5626    6.0134 N   0  0  0  0  0  0  0  0  0  0  0  0
    2.3230   -2.1150    6.0793 C   0  0  0  0  0  0  0  0  0  0  0  0
    2.6487   -2.4779    7.5053 C   0  0  0  0  0  0  0  0  0  0  0  0
    3.2323   -1.5423    8.3395 C   0  0  0  0  0  0  0  0  0  0  0  0
    3.5324   -1.8721    9.6471 C   0  0  0  0  0  0  0  0  0  0  0  0
    3.2476   -3.1432   10.1236 C   0  0  0  0  0  0  0  0  0  0  0  0
    2.6613   -4.0810    9.2847 C   0  0  0  0  0  0  0  0  0  0  0  0
    2.3582   -3.7440    7.9785 C   0  0  0  0  0  0  0  0  0  0  0  0
    2.3030   -5.6731    9.8769 Cl  0  0  0  0  0  0  0  0  0  0  0  0
    3.5424   -3.4701   11.4096 O   0  0  0  0  0  0  0  0  0  0  0  0
    4.1451   -2.4553   12.2151 C   0  0  0  0  0  0  0  0  0  0  0  0
   -0.7430   -2.6438    8.0347 C   0  0  0  0  0  0  0  0  0  0  0  0
    0.2351   -2.0196    8.3994 O   0  0  0  0  0  0  0  0  0  0  0  0
   -1.6355   -3.0884    8.9415 N   0  0  0  0  0  0  0  0  0  0  0  0
   -1.4274   -2.8199   10.3666 C   0  0  0  0  0  0  0  0  0  0  0  0
   -2.5589   -3.4193   11.1612 C   0  0  0  0  0  0  0  0  0  0  0  0
   -2.4121   -4.6761   11.7177 C   0  0  0  0  0  0  0  0  0  0  0  0
   -3.4590   -5.2185   12.4468 C   0  0  0  0  0  0  0  0  0  0  0  0
   -4.6196   -4.4732   12.5896 C   0  0  0  0  0  0  0  0  0  0  0  0
   -4.6936   -3.2235   12.0046 C   0  0  0  0  0  0  0  0  0  0  0  0
   -3.6754   -2.7367   11.3221 N   0  0  0  0  0  0  0  0  0  0  0  0
    1.0119   -1.9170    0.8977 C   0  0  0  0  0  0  0  0  0  0  0  0
    1.6656   -1.4978    0.0686 N   0  0  0  0  0  0  0  0  0  0  0  0
   -4.0037   -3.0628    1.3713 H   0  0  0  0  0  0  0  0  0  0  0  0
   -4.9734   -4.4694    1.8710 H   0  0  0  0  0  0  0  0  0  0  0  0
   -4.3268   -3.3533    3.0975 H   0  0  0  0  0  0  0  0  0  0  0  0
   -2.9880   -5.4380    2.9973 H   0  0  0  0  0  0  0  0  0  0  0  0
   -2.6649   -5.1476    1.2712 H   0  0  0  0  0  0  0  0  0  0  0  0
   -1.1099   -3.5058    0.5899 H   0  0  0  0  0  0  0  0  0  0  0  0
    1.3066   -1.5021    3.5130 H   0  0  0  0  0  0  0  0  0  0  0  0
   -2.6746   -4.1566    6.9217 H   0  0  0  0  0  0  0  0  0  0  0  0
    0.8131   -0.6299    6.2302 H   0  0  0  0  0  0  0  0  0  0  0  0
    2.3829   -3.0063    5.4548 H   0  0  0  0  0  0  0  0  0  0  0  0
    3.0360   -1.3721    5.7216 H   0  0  0  0  0  0  0  0  0  0  0  0
    3.4540   -0.5526    7.9684 H   0  0  0  0  0  0  0  0  0  0  0  0
    3.9889   -1.1408   10.2977 H   0  0  0  0  0  0  0  0  0  0  0  0
    1.8984   -4.4716    7.3262 H   0  0  0  0  0  0  0  0  0  0  0  0
    4.3277   -2.8465   13.2160 H   0  0  0  0  0  0  0  0  0  0  0  0
    5.0902   -2.1490   11.7667 H   0  0  0  0  0  0  0  0  0  0  0  0
    3.4771   -1.5962   12.2771 H   0  0  0  0  0  0  0  0  0  0  0  0
   -2.4155   -3.5862    8.6507 H   0  0  0  0  0  0  0  0  0  0  0  0
   -0.4843   -3.2633   10.6860 H   0  0  0  0  0  0  0  0  0  0  0  0
   -1.3973   -1.7430   10.5328 H   0  0  0  0  0  0  0  0  0  0  0  0
   -1.4936   -5.2287   11.5858 H   0  0  0  0  0  0  0  0  0  0  0  0
   -3.3728   -6.1984   12.8927 H   0  0  0  0  0  0  0  0  0  0  0  0
   -5.4553   -4.8646   13.1507 H   0  0  0  0  0  0  0  0  0  0  0  0
   -5.5941   -2.6368   12.1111 H   0  0  0  0  0  0  0  0  0  0  0  0
  1  2  1  0  0  0  0
  1 36  1  0  0  0  0
  1 37  1  0  0  0  0
  1 38  1  0  0  0  0
  2  3  1  0  0  0  0
  2 39  1  0  0  0  0
  2 40  1  0  0  0  0
  3  8  2  0  0  0  0
  3  4  1  0  0  0  0
  4  5  2  0  0  0  0
  4 41  1  0  0  0  0
  5  6  1  0  0  0  0
  5 34  1  0  0  0  0
  6  7  2  0  0  0  0
  6 42  1  0  0  0  0
  7 12  1  0  0  0  0
  7  8  1  0  0  0  0
  8  9  1  0  0  0  0
  9 10  2  0  0  0  0
 10 11  1  0  0  0  0
 10 43  1  0  0  0  0
 11 12  2  0  0  0  0
 11 24  1  0  0  0  0
 12 13  1  0  0  0  0
 13 14  1  0  0  0  0
 13 44  1  0  0  0  0
 14 15  1  0  0  0  0
 14 45  1  0  0  0  0
 14 46  1  0  0  0  0
 15 20  2  0  0  0  0
 15 16  1  0  0  0  0
 16 17  2  0  0  0  0
 16 47  1  0  0  0  0
 17 18  1  0  0  0  0
 17 48  1  0  0  0  0
 18 19  2  0  0  0  0
 18 22  1  0  0  0  0
 19 20  1  0  0  0  0
 19 21  1  0  0  0  0
 20 49  1  0  0  0  0
 22 23  1  0  0  0  0
 23 50  1  0  0  0  0
 23 51  1  0  0  0  0
 23 52  1  0  0  0  0
 24 25  2  0  0  0  0
 24 26  1  0  0  0  0
 26 27  1  0  0  0  0
 26 53  1  0  0  0  0
 27 28  1  0  0  0  0
 27 54  1  0  0  0  0
 27 55  1  0  0  0  0
 28 33  2  0  0  0  0
 28 29  1  0  0  0  0
 29 30  2  0  0  0  0
 29 56  1  0  0  0  0
 30 31  1  0  0  0  0
 30 57  1  0  0  0  0
 31 32  2  0  0  0  0
 31 58  1  0  0  0  0
 32 33  1  0  0  0  0
 32 59  1  0  0  0  0
 34 35  3  0  0  0  0
M  END
$$$$
CHEMBL38735
  -OEChem-07121202283D

 48 50  0     0  0  0  0  0  0999 V2000
    0.3365    2.2389   -0.5764 C   0  0  0  0  0  0  0  0  0  0  0  0
    0.0841    0.7299   -0.5629 C   0  0  0  0  0  0  0  0  0  0  0  0
    0.8022    0.0901   -1.7231 C   0  0  0  0  0  0  0  0  0  0  0  0
    0.1428   -0.1316   -2.8888 C   0  0  0  0  0  0  0  0  0  0  0  0
    0.7934   -0.7272   -3.9838 C   0  0  0  0  0  0  0  0  0  0  0  0
    2.1270   -1.0998   -3.8885 C   0  0  0  0  0  0  0  0  0  0  0  0
    2.8185   -0.8773   -2.6939 C   0  0  0  0  0  0  0  0  0  0  0  0
    2.1564   -0.2710   -1.5980 C   0  0  0  0  0  0  0  0  0  0  0  0
    2.8192   -0.0535   -0.4570 N   0  3  0  0  0  0  0  0  0  0  0  0
    4.0829   -0.3824   -0.3182 C   0  0  0  0  0  0  0  0  0  0  0  0
    4.8037   -0.9745   -1.3456 C   0  0  0  0  0  0  0  0  0  0  0  0
    4.1805   -1.2431   -2.5547 C   0  0  0  0  0  0  0  0  0  0  0  0
    4.8722   -1.8336   -3.5995 N   0  0  0  0  0  0  0  0  0  0  0  0
    6.3315   -1.7233   -3.6668 C   0  0  0  0  0  0  0  0  0  0  0  0
    6.8144   -2.2494   -4.9939 C   0  0  0  0  0  0  0  0  0  0  0  0
    7.1348   -3.5876   -5.1304 C   0  0  0  0  0  0  0  0  0  0  0  0
    7.5781   -4.0729   -6.3455 C   0  0  0  0  0  0  0  0  0  0  0  0
    7.7015   -3.2168   -7.4299 C   0  0  0  0  0  0  0  0  0  0  0  0
    7.3790   -1.8738   -7.2910 C   0  0  0  0  0  0  0  0  0  0  0  0
    6.9308   -1.3945   -6.0740 C   0  0  0  0  0  0  0  0  0  0  0  0
    7.5319   -0.7988   -8.6454 Cl  0  0  0  0  0  0  0  0  0  0  0  0
    8.1380   -3.6920   -8.6263 O   0  0  0  0  0  0  0  0  0  0  0  0
    8.4520   -5.0843   -8.6958 C   0  0  0  0  0  0  0  0  0  0  0  0
    6.2528   -1.3355   -1.1439 C   0  0  0  0  0  0  0  0  0  0  0  0
    6.6595   -0.9558    0.1724 O   0  0  0  0  0  0  0  0  0  0  0  0
    0.0765   -0.9509   -5.2031 C   0  0  0  0  0  0  0  0  0  0  0  0
   -0.4922   -1.1284   -6.1703 N   0  0  0  0  0  0  0  0  0  0  0  0
    1.4064    2.4291   -0.4911 H   0  0  0  0  0  0  0  0  0  0  0  0
   -0.0342    2.6610   -1.5105 H   0  0  0  0  0  0  0  0  0  0  0  0
   -0.1828    2.7017    0.2628 H   0  0  0  0  0  0  0  0  0  0  0  0
    0.4549    0.3079    0.3712 H   0  0  0  0  0  0  0  0  0  0  0  0
   -0.9857    0.5397   -0.6482 H   0  0  0  0  0  0  0  0  0  0  0  0
   -0.8954    0.1528   -2.9762 H   0  0  0  0  0  0  0  0  0  0  0  0
    2.6261   -1.5578   -4.7296 H   0  0  0  0  0  0  0  0  0  0  0  0
    4.5756   -0.1862    0.6226 H   0  0  0  0  0  0  0  0  0  0  0  0
    4.3904   -2.3201   -4.2866 H   0  0  0  0  0  0  0  0  0  0  0  0
    6.6220   -0.6778   -3.5631 H   0  0  0  0  0  0  0  0  0  0  0  0
    6.7775   -2.3060   -2.8609 H   0  0  0  0  0  0  0  0  0  0  0  0
    7.0387   -4.2541   -4.2860 H   0  0  0  0  0  0  0  0  0  0  0  0
    7.8288   -5.1181   -6.4510 H   0  0  0  0  0  0  0  0  0  0  0  0
    6.6757   -0.3506   -5.9660 H   0  0  0  0  0  0  0  0  0  0  0  0
    9.2438   -5.3142   -7.9829 H   0  0  0  0  0  0  0  0  0  0  0  0
    7.5646   -5.6694   -8.4544 H   0  0  0  0  0  0  0  0  0  0  0  0
    8.7871   -5.3313   -9.7031 H   0  0  0  0  0  0  0  0  0  0  0  0
    6.3799   -2.4110   -1.2673 H   0  0  0  0  0  0  0  0  0  0  0  0
    6.8636   -0.8108   -1.8785 H   0  0  0  0  0  0  0  0  0  0  0  0
    7.5835   -1.1587    0.3724 H   0  0  0  0  0  0  0  0  0  0  0  0
    2.3541    0.3584    0.2879 H   0  0  0  0  0  0  0  0  0  0  0  0
  1  2  1  0  0  0  0
  1 28  1  0  0  0  0
  1 29  1  0  0  0  0
  1 30  1  0  0  0  0
  2  3  1  0  0  0  0
  2 31  1  0  0  0  0
  2 32  1  0  0  0  0
  3  8  2  0  0  0  0
  3  4  1  0  0  0  0
  4  5  2  0  0  0  0
  4 33  1  0  0  0  0
  5  6  1  0  0  0  0
  5 26  1  0  0  0  0
  6  7  2  0  0  0  0
  6 34  1  0  0  0  0
  7 12  1  0  0  0  0
  7  8  1  0  0  0  0
  8  9  1  0  0  0  0
  9 10  2  0  0  0  0
  9 48  1  0  0  0  0
 10 11  1  0  0  0  0
 10 35  1  0  0  0  0
 11 12  2  0  0  0  0
 11 24  1  0  0  0  0
 12 13  1  0  0  0  0
 13 14  1  0  0  0  0
 13 36  1  0  0  0  0
 14 15  1  0  0  0  0
 14 37  1  0  0  0  0
 14 38  1  0  0  0  0
 15 20  2  0  0  0  0
 15 16  1  0  0  0  0
 16 17  2  0  0  0  0
 16 39  1  0  0  0  0
 17 18  1  0  0  0  0
 17 40  1  0  0  0  0
 18 19  2  0  0  0  0
 18 22  1  0  0  0  0
 19 20  1  0  0  0  0
 19 21  1  0  0  0  0
 20 41  1  0  0  0  0
 22 23  1  0  0  0  0
 23 42  1  0  0  0  0
 23 43  1  0  0  0  0
 23 44  1  0  0  0  0
 24 25  1  0  0  0  0
 24 45  1  0  0  0  0
 24 46  1  0  0  0  0
 25 47  1  0  0  0  0
 26 27  3  0  0  0  0
M  CHG  1   9   1
M  END
$$$$
CHEMBL38735
  -OEChem-07121202283D

 47 49  0     0  0  0  0  0  0999 V2000
   -0.7219    2.2214   -0.0063 C   0  0  0  0  0  0  0  0  0  0  0  0
   -0.5456    0.7171    0.2102 C   0  0  0  0  0  0  0  0  0  0  0  0
   -1.8926    0.0426    0.1708 C   0  0  0  0  0  0  0  0  0  0  0  0
   -2.5663   -0.1929    1.3256 C   0  0  0  0  0  0  0  0  0  0  0  0
   -3.8244   -0.8208    1.3118 C   0  0  0  0  0  0  0  0  0  0  0  0
   -4.3991   -1.2119    0.1105 C   0  0  0  0  0  0  0  0  0  0  0  0
   -3.7165   -0.9756   -1.0864 C   0  0  0  0  0  0  0  0  0  0  0  0
   -2.4522   -0.3367   -1.0633 C   0  0  0  0  0  0  0  0  0  0  0  0
   -1.8015   -0.1062   -2.2086 N   0  0  0  0  0  0  0  0  0  0  0  0
   -2.3046   -0.4520   -3.3712 C   0  0  0  0  0  0  0  0  0  0  0  0
   -3.5392   -1.0761   -3.4795 C   0  0  0  0  0  0  0  0  0  0  0  0
   -4.2676   -1.3595   -2.3343 C   0  0  0  0  0  0  0  0  0  0  0  0
   -5.5029   -1.9819   -2.4088 N   0  0  0  0  0  0  0  0  0  0  0  0
   -6.2934   -1.8958   -3.6391 C   0  0  0  0  0  0  0  0  0  0  0  0
   -7.6702   -2.4565   -3.3918 C   0  0  0  0  0  0  0  0  0  0  0  0
   -7.9144   -3.8021   -3.5966 C   0  0  0  0  0  0  0  0  0  0  0  0
   -9.1756   -4.3190   -3.3712 C   0  0  0  0  0  0  0  0  0  0  0  0
  -10.1979   -3.4873   -2.9386 C   0  0  0  0  0  0  0  0  0  0  0  0
   -9.9507   -2.1369   -2.7332 C   0  0  0  0  0  0  0  0  0  0  0  0
   -8.6854   -1.6258   -2.9553 C   0  0  0  0  0  0  0  0  0  0  0  0
  -11.2271   -1.0922   -2.1918 Cl  0  0  0  0  0  0  0  0  0  0  0  0
  -11.4396   -3.9936   -2.7166 O   0  0  0  0  0  0  0  0  0  0  0  0
  -11.6213   -5.3918   -2.9491 C   0  0  0  0  0  0  0  0  0  0  0  0
   -4.0797   -1.4557   -4.8341 C   0  0  0  0  0  0  0  0  0  0  0  0
   -3.1529   -1.0562   -5.8458 O   0  0  0  0  0  0  0  0  0  0  0  0
   -4.5157   -1.0584    2.5432 C   0  0  0  0  0  0  0  0  0  0  0  0
   -5.0641   -1.2469    3.5200 N   0  0  0  0  0  0  0  0  0  0  0  0
    0.2524    2.7093    0.0222 H   0  0  0  0  0  0  0  0  0  0  0  0
   -1.1879    2.3968   -0.9759 H   0  0  0  0  0  0  0  0  0  0  0  0
   -1.3559    2.6298    0.7807 H   0  0  0  0  0  0  0  0  0  0  0  0
    0.0884    0.3086   -0.5768 H   0  0  0  0  0  0  0  0  0  0  0  0
   -0.0796    0.5417    1.1798 H   0  0  0  0  0  0  0  0  0  0  0  0
   -2.1301    0.1057    2.2674 H   0  0  0  0  0  0  0  0  0  0  0  0
   -5.3651   -1.6947    0.1005 H   0  0  0  0  0  0  0  0  0  0  0  0
   -1.7414   -0.2444   -4.2690 H   0  0  0  0  0  0  0  0  0  0  0  0
   -5.8444   -2.4747   -1.6463 H   0  0  0  0  0  0  0  0  0  0  0  0
   -6.3755   -0.8531   -3.9461 H   0  0  0  0  0  0  0  0  0  0  0  0
   -5.8038   -2.4689   -4.4265 H   0  0  0  0  0  0  0  0  0  0  0  0
   -7.1184   -4.4496   -3.9334 H   0  0  0  0  0  0  0  0  0  0  0  0
   -9.3655   -5.3699   -3.5320 H   0  0  0  0  0  0  0  0  0  0  0  0
   -8.4910   -0.5760   -2.7919 H   0  0  0  0  0  0  0  0  0  0  0  0
  -12.6546   -5.6645   -2.7347 H   0  0  0  0  0  0  0  0  0  0  0  0
  -11.3940   -5.6194   -3.9906 H   0  0  0  0  0  0  0  0  0  0  0  0
  -10.9537   -5.9579   -2.2995 H   0  0  0  0  0  0  0  0  0  0  0  0
   -4.2231   -2.5353   -4.8785 H   0  0  0  0  0  0  0  0  0  0  0  0
   -5.0342   -0.9554   -4.9977 H   0  0  0  0  0  0  0  0  0  0  0  0
   -3.4364   -1.2696   -6.7453 H   0  0  0  0  0  0  0  0  0  0  0  0
  1  2  1  0  0  0  0
  1 28  1  0  0  0  0
  1 29  1  0  0  0  0
  1 30  1  0  0  0  0
  2  3  1  0  0  0  0
  2 31  1  0  0  0  0
  2 32  1  0  0  0  0
  3  8  2  0  0  0  0
  3  4  1  0  0  0  0
  4  5  2  0  0  0  0
  4 33  1  0  0  0  0
  5  6  1  0  0  0  0
  5 26  1  0  0  0  0
  6  7  2  0  0  0  0
  6 34  1  0  0  0  0
  7 12  1  0  0  0  0
  7  8  1  0  0  0  0
  8  9  1  0  0  0  0
  9 10  2  0  0  0  0
 10 11  1  0  0  0  0
 10 35  1  0  0  0  0
 11 12  2  0  0  0  0
 11 24  1  0  0  0  0
 12 13  1  0  0  0  0
 13 14  1  0  0  0  0
 13 36  1  0  0  0  0
 14 15  1  0  0  0  0
 14 37  1  0  0  0  0
 14 38  1  0  0  0  0
 15 20  2  0  0  0  0
 15 16  1  0  0  0  0
 16 17  2  0  0  0  0
 16 39  1  0  0  0  0
 17 18  1  0  0  0  0
 17 40  1  0  0  0  0
 18 19  2  0  0  0  0
 18 22  1  0  0  0  0
 19 20  1  0  0  0  0
 19 21  1  0  0  0  0
 20 41  1  0  0  0  0
 22 23  1  0  0  0  0
 23 42  1  0  0  0  0
 23 43  1  0  0  0  0
 23 44  1  0  0  0  0
 24 25  1  0  0  0  0
 24 45  1  0  0  0  0
 24 46  1  0  0  0  0
 25 47  1  0  0  0  0
 26 27  3  0  0  0  0
M  END
$$$$
CHEMBL166018
  -OEChem-07121202283D

 64 70  0     1  0  0  0  0  0999 V2000
   -0.8240   -4.4156  -15.5314 C   0  0  0  0  0  0  0  0  0  0  0  0
   -0.5253   -5.4129  -14.4418 C   0  0  0  0  0  0  0  0  0  0  0  0
    0.1899   -5.1005  -13.5133 O   0  0  0  0  0  0  0  0  0  0  0  0
   -1.0528   -6.6518  -14.4990 N   0  0  0  0  0  0  0  0  0  0  0  0
   -0.7198   -7.5998  -13.5249 C   0  0  0  0  0  0  0  0  0  0  0  0
   -0.5672   -8.9355  -13.8786 C   0  0  0  0  0  0  0  0  0  0  0  0
   -0.2384   -9.8760  -12.9205 C   0  0  0  0  0  0  0  0  0  0  0  0
   -0.0596   -9.4955  -11.6060 C   0  0  0  0  0  0  0  0  0  0  0  0
   -0.2105   -8.1562  -11.2403 C   0  0  0  0  0  0  0  0  0  0  0  0
   -0.5366   -7.2060  -12.2090 C   0  0  0  0  0  0  0  0  0  0  0  0
   -0.0203   -7.7459   -9.8341 C   0  0  0  0  0  0  0  0  0  0  0  0
    0.3090   -8.5751   -8.8007 C   0  0  0  0  0  0  0  0  0  0  0  0
    0.3887   -7.7853   -7.6492 C   0  0  0  0  0  0  0  0  0  0  0  0
    0.1017   -6.4936   -8.0325 C   0  0  0  0  0  0  0  0  0  0  0  0
   -0.1369   -6.4939   -9.3610 O   0  0  0  0  0  0  0  0  0  0  0  0
    0.0675   -5.3225   -7.1525 C   0  0  0  0  0  0  0  0  0  0  0  0
    0.2198   -5.4582   -5.9526 O   0  0  0  0  0  0  0  0  0  0  0  0
   -0.1324   -4.0949   -7.6719 N   0  0  0  0  0  0  0  0  0  0  0  0
   -0.2954   -2.9235   -6.7977 C   0  0  0  0  0  0  0  0  0  0  0  0
    0.8751   -1.9610   -7.0320 C   0  0  0  0  0  0  0  0  0  0  0  0
    1.0998   -1.8144   -8.5153 C   0  0  0  0  0  0  0  0  0  0  0  0
    1.8305   -0.7763   -9.2141 C   0  0  0  0  0  0  0  0  0  0  0  0
    2.5207    0.3571   -8.7736 C   0  0  0  0  0  0  0  0  0  0  0  0
    3.1099    1.1380   -9.7370 C   0  0  0  0  0  0  0  0  0  0  0  0
    3.0316    0.8283  -11.0850 C   0  0  0  0  0  0  0  0  0  0  0  0
    2.3559   -0.2872  -11.5485 C   0  0  0  0  0  0  0  0  0  0  0  0
    1.7475   -1.0986  -10.5930 C   0  0  0  0  0  0  0  0  0  0  0  0
    1.0184   -2.2480  -10.6984 N   0  0  0  0  0  0  0  0  0  0  0  0
    0.8052   -2.6995  -11.5300 H   0  0  0  0  0  0  0  0  0  0  0  0
    0.6339   -2.6677   -9.4528 C   0  0  0  0  0  0  0  0  0  0  0  0
   -0.1873   -3.8912   -9.1296 C   0  0  2  0  0  0  0  0  0  0  0  0
   -1.6142   -3.6738   -9.5627 C   0  0  0  0  0  0  0  0  0  0  0  0
   -2.2131   -4.5628  -10.4359 C   0  0  0  0  0  0  0  0  0  0  0  0
   -3.5220   -4.3680  -10.8357 C   0  0  0  0  0  0  0  0  0  0  0  0
   -4.2370   -3.2800  -10.3620 C   0  0  0  0  0  0  0  0  0  0  0  0
   -3.6337   -2.3844   -9.4824 C   0  0  0  0  0  0  0  0  0  0  0  0
   -2.3234   -2.5892   -9.0815 C   0  0  0  0  0  0  0  0  0  0  0  0
   -4.5354   -1.4098   -9.1656 O   0  0  0  0  0  0  0  0  0  0  0  0
   -5.5591   -1.4903  -10.1750 C   0  0  0  0  0  0  0  0  0  0  0  0
   -5.5166   -2.8665  -10.5961 O   0  0  0  0  0  0  0  0  0  0  0  0
   -0.0740   -4.5011  -16.3177 H   0  0  0  0  0  0  0  0  0  0  0  0
   -1.8111   -4.6169  -15.9475 H   0  0  0  0  0  0  0  0  0  0  0  0
   -0.8029   -3.4076  -15.1172 H   0  0  0  0  0  0  0  0  0  0  0  0
   -1.6633   -6.8863  -15.2154 H   0  0  0  0  0  0  0  0  0  0  0  0
   -0.7065   -9.2395  -14.9055 H   0  0  0  0  0  0  0  0  0  0  0  0
   -0.1212  -10.9122  -13.2015 H   0  0  0  0  0  0  0  0  0  0  0  0
    0.1966  -10.2335  -10.8603 H   0  0  0  0  0  0  0  0  0  0  0  0
   -0.6503   -6.1680  -11.9332 H   0  0  0  0  0  0  0  0  0  0  0  0
    0.4760   -9.6404   -8.8610 H   0  0  0  0  0  0  0  0  0  0  0  0
    0.6289   -8.1230   -6.6518 H   0  0  0  0  0  0  0  0  0  0  0  0
   -1.2337   -2.4209   -7.0322 H   0  0  0  0  0  0  0  0  0  0  0  0
   -0.3016   -3.2437   -5.7558 H   0  0  0  0  0  0  0  0  0  0  0  0
    0.6392   -0.9880   -6.6009 H   0  0  0  0  0  0  0  0  0  0  0  0
    1.7750   -2.3603   -6.5644 H   0  0  0  0  0  0  0  0  0  0  0  0
    2.5869    0.6068   -7.7250 H   0  0  0  0  0  0  0  0  0  0  0  0
    3.6515    2.0221   -9.4344 H   0  0  0  0  0  0  0  0  0  0  0  0
    3.5145    1.4794  -11.7986 H   0  0  0  0  0  0  0  0  0  0  0  0
    2.3022   -0.5177  -12.6023 H   0  0  0  0  0  0  0  0  0  0  0  0
    0.2273   -4.7601   -9.6407 H   0  0  0  0  0  0  0  0  0  0  0  0
   -1.6570   -5.4112  -10.8067 H   0  0  0  0  0  0  0  0  0  0  0  0
   -3.9873   -5.0641  -11.5179 H   0  0  0  0  0  0  0  0  0  0  0  0
   -1.8545   -1.8988   -8.3961 H   0  0  0  0  0  0  0  0  0  0  0  0
   -6.5341   -1.2492   -9.7517 H   0  0  0  0  0  0  0  0  0  0  0  0
   -5.3278   -0.8273  -11.0087 H   0  0  0  0  0  0  0  0  0  0  0  0
  1  2  1  0  0  0  0
  1 41  1  0  0  0  0
  1 42  1  0  0  0  0
  1 43  1  0  0  0  0
  2  3  2  0  0  0  0
  2  4  1  0  0  0  0
  4  5  1  0  0  0  0
  4 44  1  0  0  0  0
  5 10  2  0  0  0  0
  5  6  1  0  0  0  0
  6  7  2  0  0  0  0
  6 45  1  0  0  0  0
  7  8  1  0  0  0  0
  7 46  1  0  0  0  0
  8  9  2  0  0  0  0
  8 47  1  0  0  0  0
  9 10  1  0  0  0  0
  9 11  1  0  0  0  0
 10 48  1  0  0  0  0
 11 15  1  0  0  0  0
 11 12  2  0  0  0  0
 12 13  1  0  0  0  0
 12 49  1  0  0  0  0
 13 14  2  0  0  0  0
 13 50  1  0  0  0  0
 14 15  1  0  0  0  0
 14 16  1  0  0  0  0
 16 17  2  0  0  0  0
 16 18  1  0  0  0  0
 18 31  1  0  0  0  0
 18 19  1  0  0  0  0
 19 20  1  0  0  0  0
 19 51  1  0  0  0  0
 19 52  1  0  0  0  0
 20 21  1  0  0  0  0
 20 53  1  0  0  0  0
 20 54  1  0  0  0  0
 21 30  2  0  0  0  0
 21 22  1  0  0  0  0
 22 27  2  0  0  0  0
 22 23  1  0  0  0  0
 23 24  2  0  0  0  0
 23 55  1  0  0  0  0
 24 25  1  0  0  0  0
 24 56  1  0  0  0  0
 25 26  2  0  0  0  0
 25 57  1  0  0  0  0
 26 27  1  0  0  0  0
 26 58  1  0  0  0  0
 27 28  1  0  0  0  0
 28 29  1  0  0  0  0
 28 30  1  0  0  0  0
 30 31  1  0  0  0  0
 31 32  1  0  0  0  0
 31 59  1  0  0  0  0
 32 37  2  0  0  0  0
 32 33  1  0  0  0  0
 33 34  2  0  0  0  0
 33 60  1  0  0  0  0
 34 35  1  0  0  0  0
 34 61  1  0  0  0  0
 35 40  1  0  0  0  0
 35 36  2  0  0  0  0
 36 37  1  0  0  0  0
 36 38  1  0  0  0  0
 37 62  1  0  0  0  0
 38 39  1  0  0  0  0
 39 40  1  0  0  0  0
 39 63  1  0  0  0  0
 39 64  1  0  0  0  0
M  END
$$$$
CHEMBL166018
  -OEChem-07121202283D

 64 70  0     1  0  0  0  0  0999 V2000
   -0.5082   -4.3182  -17.1857 C   0  0  0  0  0  0  0  0  0  0  0  0
   -0.5585   -5.5200  -16.2779 C   0  0  0  0  0  0  0  0  0  0  0  0
   -1.1393   -6.5240  -16.6324 O   0  0  0  0  0  0  0  0  0  0  0  0
    0.0420   -5.4792  -15.0720 N   0  0  0  0  0  0  0  0  0  0  0  0
   -0.0871   -6.5574  -14.1891 C   0  0  0  0  0  0  0  0  0  0  0  0
   -0.1366   -7.8565  -14.6813 C   0  0  0  0  0  0  0  0  0  0  0  0
   -0.2640   -8.9251  -13.8139 C   0  0  0  0  0  0  0  0  0  0  0  0
   -0.3434   -8.7096  -12.4531 C   0  0  0  0  0  0  0  0  0  0  0  0
   -0.2946   -7.4084  -11.9484 C   0  0  0  0  0  0  0  0  0  0  0  0
   -0.1598   -6.3302  -12.8241 C   0  0  0  0  0  0  0  0  0  0  0  0
   -0.3798   -7.1745  -10.4924 C   0  0  0  0  0  0  0  0  0  0  0  0
   -0.5021   -8.1418   -9.5367 C   0  0  0  0  0  0  0  0  0  0  0  0
   -0.5479   -7.4930   -8.2985 C   0  0  0  0  0  0  0  0  0  0  0  0
   -0.4505   -6.1427   -8.5535 C   0  0  0  0  0  0  0  0  0  0  0  0
   -0.3438   -5.9750   -9.8885 O   0  0  0  0  0  0  0  0  0  0  0  0
   -0.4554   -5.0751   -7.5498 C   0  0  0  0  0  0  0  0  0  0  0  0
   -0.4259   -5.3532   -6.3652 O   0  0  0  0  0  0  0  0  0  0  0  0
   -0.4927   -3.7851   -7.9384 N   0  0  0  0  0  0  0  0  0  0  0  0
   -0.5665   -2.7007   -6.9476 C   0  0  0  0  0  0  0  0  0  0  0  0
   -1.8990   -1.9612   -7.1174 C   0  0  0  0  0  0  0  0  0  0  0  0
   -2.1357   -1.7081   -8.5844 C   0  0  0  0  0  0  0  0  0  0  0  0
   -3.0473   -0.7625   -9.1964 C   0  0  0  0  0  0  0  0  0  0  0  0
   -3.9467    0.1667   -8.6646 C   0  0  0  0  0  0  0  0  0  0  0  0
   -4.6673    0.9162   -9.5615 C   0  0  0  0  0  0  0  0  0  0  0  0
   -4.5194    0.7680  -10.9309 C   0  0  0  0  0  0  0  0  0  0  0  0
   -3.6369   -0.1434  -11.4842 C   0  0  0  0  0  0  0  0  0  0  0  0
   -2.8922   -0.9187  -10.5977 C   0  0  0  0  0  0  0  0  0  0  0  0
   -1.9539   -1.8903  -10.7967 N   0  0  0  0  0  0  0  0  0  0  0  0
   -1.6504   -2.2040  -11.6629 H   0  0  0  0  0  0  0  0  0  0  0  0
   -1.5059   -2.3549   -9.5890 C   0  0  0  0  0  0  0  0  0  0  0  0
   -0.4545   -3.4248   -9.3661 C   0  0  1  0  0  0  0  0  0  0  0  0
    0.9089   -2.8910   -9.7229 C   0  0  0  0  0  0  0  0  0  0  0  0
    1.6976   -3.5676  -10.6347 C   0  0  0  0  0  0  0  0  0  0  0  0
    2.9488   -3.0816  -10.9656 C   0  0  0  0  0  0  0  0  0  0  0  0
    3.4155   -1.9144  -10.3831 C   0  0  0  0  0  0  0  0  0  0  0  0
    2.6210   -1.2328   -9.4646 C   0  0  0  0  0  0  0  0  0  0  0  0
    1.3658   -1.7227   -9.1421 C   0  0  0  0  0  0  0  0  0  0  0  0
    3.2975   -0.1262   -9.0391 O   0  0  0  0  0  0  0  0  0  0  0  0
    4.6735   -0.3561   -9.3956 C   0  0  0  0  0  0  0  0  0  0  0  0
    4.5898   -1.2348  -10.5332 O   0  0  0  0  0  0  0  0  0  0  0  0
   -1.3644   -3.6746  -16.9842 H   0  0  0  0  0  0  0  0  0  0  0  0
    0.4131   -3.7645  -17.0049 H   0  0  0  0  0  0  0  0  0  0  0  0
   -0.5368   -4.6464  -18.2248 H   0  0  0  0  0  0  0  0  0  0  0  0
    0.5636   -4.7025  -14.8159 H   0  0  0  0  0  0  0  0  0  0  0  0
   -0.0757   -8.0315  -15.7453 H   0  0  0  0  0  0  0  0  0  0  0  0
   -0.3019   -9.9321  -14.2024 H   0  0  0  0  0  0  0  0  0  0  0  0
   -0.4436   -9.5471  -11.7786 H   0  0  0  0  0  0  0  0  0  0  0  0
   -0.1170   -5.3219  -12.4396 H   0  0  0  0  0  0  0  0  0  0  0  0
   -0.5542   -9.2073   -9.7052 H   0  0  0  0  0  0  0  0  0  0  0  0
   -0.6416   -7.9605   -7.3294 H   0  0  0  0  0  0  0  0  0  0  0  0
   -0.5071   -3.1197   -5.9431 H   0  0  0  0  0  0  0  0  0  0  0  0
    0.2589   -2.0063   -7.1045 H   0  0  0  0  0  0  0  0  0  0  0  0
   -2.7086   -2.5715   -6.7173 H   0  0  0  0  0  0  0  0  0  0  0  0
   -1.8592   -1.0109   -6.5850 H   0  0  0  0  0  0  0  0  0  0  0  0
   -4.0690    0.2890   -7.5985 H   0  0  0  0  0  0  0  0  0  0  0  0
   -5.3720    1.6440   -9.1874 H   0  0  0  0  0  0  0  0  0  0  0  0
   -5.1127    1.3852  -11.5893 H   0  0  0  0  0  0  0  0  0  0  0  0
   -3.5304   -0.2488  -12.5538 H   0  0  0  0  0  0  0  0  0  0  0  0
   -0.6812   -4.3000   -9.9750 H   0  0  0  0  0  0  0  0  0  0  0  0
    1.3357   -4.4780  -11.0892 H   0  0  0  0  0  0  0  0  0  0  0  0
    3.5628   -3.6122  -11.6782 H   0  0  0  0  0  0  0  0  0  0  0  0
    0.7456   -1.1938   -8.4335 H   0  0  0  0  0  0  0  0  0  0  0  0
    5.1597    0.5801   -9.6697 H   0  0  0  0  0  0  0  0  0  0  0  0
    5.2057   -0.8397   -8.5764 H   0  0  0  0  0  0  0  0  0  0  0  0
  1  2  1  0  0  0  0
  1 41  1  0  0  0  0
  1 42  1  0  0  0  0
  1 43  1  0  0  0  0
  2  3  2  0  0  0  0
  2  4  1  0  0  0  0
  4  5  1  0  0  0  0
  4 44  1  0  0  0  0
  5 10  2  0  0  0  0
  5  6  1  0  0  0  0
  6  7  2  0  0  0  0
  6 45  1  0  0  0  0
  7  8  1  0  0  0  0
  7 46  1  0  0  0  0
  8  9  2  0  0  0  0
  8 47  1  0  0  0  0
  9 10  1  0  0  0  0
  9 11  1  0  0  0  0
 10 48  1  0  0  0  0
 11 15  1  0  0  0  0
 11 12  2  0  0  0  0
 12 13  1  0  0  0  0
 12 49  1  0  0  0  0
 13 14  2  0  0  0  0
 13 50  1  0  0  0  0
 14 15  1  0  0  0  0
 14 16  1  0  0  0  0
 16 17  2  0  0  0  0
 16 18  1  0  0  0  0
 18 31  1  0  0  0  0
 18 19  1  0  0  0  0
 19 20  1  0  0  0  0
 19 51  1  0  0  0  0
 19 52  1  0  0  0  0
 20 21  1  0  0  0  0
 20 53  1  0  0  0  0
 20 54  1  0  0  0  0
 21 30  2  0  0  0  0
 21 22  1  0  0  0  0
 22 27  2  0  0  0  0
 22 23  1  0  0  0  0
 23 24  2  0  0  0  0
 23 55  1  0  0  0  0
 24 25  1  0  0  0  0
 24 56  1  0  0  0  0
 25 26  2  0  0  0  0
 25 57  1  0  0  0  0
 26 27  1  0  0  0  0
 26 58  1  0  0  0  0
 27 28  1  0  0  0  0
 28 29  1  0  0  0  0
 28 30  1  0  0  0  0
 30 31  1  0  0  0  0
 31 32  1  0  0  0  0
 31 59  1  0  0  0  0
 32 37  2  0  0  0  0
 32 33  1  0  0  0  0
 33 34  2  0  0  0  0
 33 60  1  0  0  0  0
 34 35  1  0  0  0  0
 34 61  1  0  0  0  0
 35 40  1  0  0  0  0
 35 36  2  0  0  0  0
 36 37  1  0  0  0  0
 36 38  1  0  0  0  0
 37 62  1  0  0  0  0
 38 39  1  0  0  0  0
 39 40  1  0  0  0  0
 39 63  1  0  0  0  0
 39 64  1  0  0  0  0
M  END
$$$$
CHEMBL349299
  -OEChem-07121202283D

 55 60  0     1  0  0  0  0  0999 V2000
   -0.0916    1.3697   -0.0347 C   0  0  0  0  0  0  0  0  0  0  0  0
   -0.0575   -0.0944    0.0064 N   0  0  0  0  0  0  0  0  0  0  0  0
   -0.1800   -0.7948   -1.1696 C   0  0  0  0  0  0  0  0  0  0  0  0
   -0.3341   -0.1394   -2.3884 C   0  0  0  0  0  0  0  0  0  0  0  0
   -0.4535   -0.8732   -3.5480 C   0  0  0  0  0  0  0  0  0  0  0  0
   -0.4221   -2.2606   -3.5159 C   0  0  0  0  0  0  0  0  0  0  0  0
   -0.2717   -2.9242   -2.3302 C   0  0  0  0  0  0  0  0  0  0  0  0
   -0.1491   -2.2000   -1.1448 C   0  0  0  0  0  0  0  0  0  0  0  0
    0.0147   -2.8700    0.1556 C   0  0  0  0  0  0  0  0  0  0  0  0
    0.0487   -4.0870    0.2352 O   0  0  0  0  0  0  0  0  0  0  0  0
    0.1324   -2.0599    1.3123 C   0  0  0  0  0  0  0  0  0  0  0  0
    0.1000   -0.7157    1.2082 C   0  0  0  0  0  0  0  0  0  0  0  0
    0.2549   -0.1115    2.5860 C   0  0  2  0  0  0  0  0  0  0  0  0
    0.3926   -1.2141    3.5422 N   0  0  0  0  0  0  0  0  0  0  0  0
    0.3075   -2.4510    2.7587 C   0  0  0  0  0  0  0  0  0  0  0  0
    0.5523   -1.1117    4.8766 C   0  0  0  0  0  0  0  0  0  0  0  0
    0.5941   -0.0165    5.4012 O   0  0  0  0  0  0  0  0  0  0  0  0
    0.6654   -2.2230    5.6282 O   0  0  0  0  0  0  0  0  0  0  0  0
    0.8322   -2.0401    7.0356 C   0  0  0  0  0  0  0  0  0  0  0  0
    0.9403   -3.3846    7.7076 C   0  0  0  0  0  0  0  0  0  0  0  0
   -0.1916   -4.0439    8.1622 C   0  0  0  0  0  0  0  0  0  0  0  0
   -0.0535   -5.2756    8.7737 C   0  0  0  0  0  0  0  0  0  0  0  0
    1.1363   -5.8230    8.9269 N   0  0  0  0  0  0  0  0  0  0  0  0
    2.2341   -5.2250    8.5070 C   0  0  0  0  0  0  0  0  0  0  0  0
    2.1734   -3.9944    7.8809 C   0  0  0  0  0  0  0  0  0  0  0  0
   -0.9632    0.7089    2.9240 C   0  0  0  0  0  0  0  0  0  0  0  0
   -0.8415    2.0699    3.1344 C   0  0  0  0  0  0  0  0  0  0  0  0
   -1.9560    2.8268    3.4442 C   0  0  0  0  0  0  0  0  0  0  0  0
   -3.1985    2.2223    3.5452 C   0  0  0  0  0  0  0  0  0  0  0  0
   -3.3211    0.8513    3.3333 C   0  0  0  0  0  0  0  0  0  0  0  0
   -2.2007    0.1000    3.0175 C   0  0  0  0  0  0  0  0  0  0  0  0
   -4.6313    0.5013    3.4885 O   0  0  0  0  0  0  0  0  0  0  0  0
   -5.2405    1.5968    4.1969 C   0  0  0  0  0  0  0  0  0  0  0  0
   -4.4319    2.7313    3.8330 O   0  0  0  0  0  0  0  0  0  0  0  0
    0.6774    1.7320   -0.7170 H   0  0  0  0  0  0  0  0  0  0  0  0
   -1.0704    1.7007   -0.3815 H   0  0  0  0  0  0  0  0  0  0  0  0
    0.0930    1.7655    0.9640 H   0  0  0  0  0  0  0  0  0  0  0  0
   -0.3601    0.9397   -2.4244 H   0  0  0  0  0  0  0  0  0  0  0  0
   -0.5733   -0.3635   -4.4926 H   0  0  0  0  0  0  0  0  0  0  0  0
   -0.5176   -2.8202   -4.4347 H   0  0  0  0  0  0  0  0  0  0  0  0
   -0.2484   -4.0038   -2.3116 H   0  0  0  0  0  0  0  0  0  0  0  0
    1.1450    0.5170    2.6159 H   0  0  0  0  0  0  0  0  0  0  0  0
   -0.5414   -3.0519    3.0851 H   0  0  0  0  0  0  0  0  0  0  0  0
    1.2315   -3.0164    2.8800 H   0  0  0  0  0  0  0  0  0  0  0  0
    1.7402   -1.4666    7.2223 H   0  0  0  0  0  0  0  0  0  0  0  0
   -0.0265   -1.5016    7.4364 H   0  0  0  0  0  0  0  0  0  0  0  0
   -1.1687   -3.6004    8.0403 H   0  0  0  0  0  0  0  0  0  0  0  0
   -0.9302   -5.7956    9.1306 H   0  0  0  0  0  0  0  0  0  0  0  0
    3.1912   -5.7043    8.6504 H   0  0  0  0  0  0  0  0  0  0  0  0
    3.0755   -3.5119    7.5347 H   0  0  0  0  0  0  0  0  0  0  0  0
    0.1264    2.5427    3.0568 H   0  0  0  0  0  0  0  0  0  0  0  0
   -1.8580    3.8898    3.6080 H   0  0  0  0  0  0  0  0  0  0  0  0
   -2.2935   -0.9627    2.8483 H   0  0  0  0  0  0  0  0  0  0  0  0
   -6.2702    1.7395    3.8691 H   0  0  0  0  0  0  0  0  0  0  0  0
   -5.2001    1.4270    5.2728 H   0  0  0  0  0  0  0  0  0  0  0  0
  1  2  1  0  0  0  0
  1 35  1  0  0  0  0
  1 36  1  0  0  0  0
  1 37  1  0  0  0  0
  2 12  1  0  0  0  0
  2  3  1  0  0  0  0
  3  8  2  0  0  0  0
  3  4  1  0  0  0  0
  4  5  2  0  0  0  0
  4 38  1  0  0  0  0
  5  6  1  0  0  0  0
  5 39  1  0  0  0  0
  6  7  2  0  0  0  0
  6 40  1  0  0  0  0
  7  8  1  0  0  0  0
  7 41  1  0  0  0  0
  8  9  1  0  0  0  0
  9 10  2  0  0  0  0
  9 11  1  0  0  0  0
 11 15  1  0  0  0  0
 11 12  2  0  0  0  0
 12 13  1  0  0  0  0
 13 14  1  0  0  0  0
 13 26  1  0  0  0  0
 13 42  1  0  0  0  0
 14 15  1  0  0  0  0
 14 16  1  0  0  0  0
 15 43  1  0  0  0  0
 15 44  1  0  0  0  0
 16 17  2  0  0  0  0
 16 18  1  0  0  0  0
 18 19  1  0  0  0  0
 19 20  1  0  0  0  0
 19 45  1  0  0  0  0
 19 46  1  0  0  0  0
 20 25  2  0  0  0  0
 20 21  1  0  0  0  0
 21 22  2  0  0  0  0
 21 47  1  0  0  0  0
 22 23  1  0  0  0  0
 22 48  1  0  0  0  0
 23 24  2  0  0  0  0
 24 25  1  0  0  0  0
 24 49  1  0  0  0  0
 25 50  1  0  0  0  0
 26 31  2  0  0  0  0
 26 27  1  0  0  0  0
 27 28  2  0  0  0  0
 27 51  1  0  0  0  0
 28 29  1  0  0  0  0
 28 52  1  0  0  0  0
 29 34  1  0  0  0  0
 29 30  2  0  0  0  0
 30 31  1  0  0  0  0
 30 32  1  0  0  0  0
 31 53  1  0  0  0  0
 32 33  1  0  0  0  0
 33 34  1  0  0  0  0
 33 54  1  0  0  0  0
 33 55  1  0  0  0  0
M  END
$$$$
CHEMBL349299
  -OEChem-07121202283D

 55 60  0     1  0  0  0  0  0999 V2000
   -0.0178    1.4608    0.0101 C   0  0  0  0  0  0  0  0  0  0  0  0
    0.0021   -0.0041    0.0020 N   0  0  0  0  0  0  0  0  0  0  0  0
    0.0052   -0.6616   -1.2047 C   0  0  0  0  0  0  0  0  0  0  0  0
   -0.0096    0.0376   -2.4087 C   0  0  0  0  0  0  0  0  0  0  0  0
   -0.0055   -0.6539   -3.6000 C   0  0  0  0  0  0  0  0  0  0  0  0
    0.0132   -2.0419   -3.6145 C   0  0  0  0  0  0  0  0  0  0  0  0
    0.0280   -2.7481   -2.4441 C   0  0  0  0  0  0  0  0  0  0  0  0
    0.0242   -2.0671   -1.2270 C   0  0  0  0  0  0  0  0  0  0  0  0
    0.0396   -2.7838    0.0586 C   0  0  0  0  0  0  0  0  0  0  0  0
    0.0567   -4.0031    0.0976 O   0  0  0  0  0  0  0  0  0  0  0  0
    0.0345   -2.0159    1.2495 C   0  0  0  0  0  0  0  0  0  0  0  0
    0.0224   -0.6687    1.1908 C   0  0  0  0  0  0  0  0  0  0  0  0
    0.0287   -0.1146    2.5980 C   0  0  1  0  0  0  0  0  0  0  0  0
    0.0533   -1.2514    3.5234 N   0  0  0  0  0  0  0  0  0  0  0  0
    0.0469   -2.4592    2.6914 C   0  0  0  0  0  0  0  0  0  0  0  0
    0.0658   -1.1974    4.8701 C   0  0  0  0  0  0  0  0  0  0  0  0
    0.0568   -0.1217    5.4351 O   0  0  0  0  0  0  0  0  0  0  0  0
    0.0883   -2.3354    5.5892 O   0  0  0  0  0  0  0  0  0  0  0  0
    0.1006   -2.2035    7.0121 C   0  0  0  0  0  0  0  0  0  0  0  0
    0.1254   -3.5718    7.6431 C   0  0  0  0  0  0  0  0  0  0  0  0
   -1.0539   -4.2348    7.9468 C   0  0  0  0  0  0  0  0  0  0  0  0
   -0.9919   -5.4885    8.5252 C   0  0  0  0  0  0  0  0  0  0  0  0
    0.1703   -6.0533    8.7882 N   0  0  0  0  0  0  0  0  0  0  0  0
    1.3114   -5.4523    8.5131 C   0  0  0  0  0  0  0  0  0  0  0  0
    1.3279   -4.2000    7.9286 C   0  0  0  0  0  0  0  0  0  0  0  0
    1.2528    0.7396    2.8054 C   0  0  0  0  0  0  0  0  0  0  0  0
    2.4725    0.1445    3.0694 C   0  0  0  0  0  0  0  0  0  0  0  0
    3.5983    0.9237    3.2598 C   0  0  0  0  0  0  0  0  0  0  0  0
    3.5065    2.3042    3.1868 C   0  0  0  0  0  0  0  0  0  0  0  0
    2.2779    2.9036    2.9209 C   0  0  0  0  0  0  0  0  0  0  0  0
    1.1549    2.1161    2.7254 C   0  0  0  0  0  0  0  0  0  0  0  0
    2.4485    4.2578    2.9008 O   0  0  0  0  0  0  0  0  0  0  0  0
    3.7063    4.4967    3.5595 C   0  0  0  0  0  0  0  0  0  0  0  0
    4.4469    3.2828    3.3332 O   0  0  0  0  0  0  0  0  0  0  0  0
    1.0048    1.8381    0.0023 H   0  0  0  0  0  0  0  0  0  0  0  0
   -0.5450    1.8219   -0.8730 H   0  0  0  0  0  0  0  0  0  0  0  0
   -0.5280    1.8123    0.9069 H   0  0  0  0  0  0  0  0  0  0  0  0
   -0.0246    1.1175   -2.4086 H   0  0  0  0  0  0  0  0  0  0  0  0
   -0.0174   -0.1103   -4.5331 H   0  0  0  0  0  0  0  0  0  0  0  0
    0.0158   -2.5680   -4.5577 H   0  0  0  0  0  0  0  0  0  0  0  0
    0.0422   -3.8278   -2.4618 H   0  0  0  0  0  0  0  0  0  0  0  0
   -0.8700    0.4790    2.7656 H   0  0  0  0  0  0  0  0  0  0  0  0
   -0.8366   -3.0623    2.9009 H   0  0  0  0  0  0  0  0  0  0  0  0
    0.9482   -3.0380    2.8929 H   0  0  0  0  0  0  0  0  0  0  0  0
    0.9861   -1.6463    7.3177 H   0  0  0  0  0  0  0  0  0  0  0  0
   -0.7936   -1.6705    7.3352 H   0  0  0  0  0  0  0  0  0  0  0  0
   -2.0088   -3.7772    7.7345 H   0  0  0  0  0  0  0  0  0  0  0  0
   -1.9059   -6.0115    8.7648 H   0  0  0  0  0  0  0  0  0  0  0  0
    2.2439   -5.9462    8.7434 H   0  0  0  0  0  0  0  0  0  0  0  0
    2.2657   -3.7151    7.7011 H   0  0  0  0  0  0  0  0  0  0  0  0
    2.5458   -0.9315    3.1274 H   0  0  0  0  0  0  0  0  0  0  0  0
    4.5498    0.4562    3.4659 H   0  0  0  0  0  0  0  0  0  0  0  0
    0.2017    2.5781    2.5146 H   0  0  0  0  0  0  0  0  0  0  0  0
    4.2187    5.3473    3.1100 H   0  0  0  0  0  0  0  0  0  0  0  0
    3.5550    4.6597    4.6266 H   0  0  0  0  0  0  0  0  0  0  0  0
  1  2  1  0  0  0  0
  1 35  1  0  0  0  0
  1 36  1  0  0  0  0
  1 37  1  0  0  0  0
  2 12  1  0  0  0  0
  2  3  1  0  0  0  0
  3  8  2  0  0  0  0
  3  4  1  0  0  0  0
  4  5  2  0  0  0  0
  4 38  1  0  0  0  0
  5  6  1  0  0  0  0
  5 39  1  0  0  0  0
  6  7  2  0  0  0  0
  6 40  1  0  0  0  0
  7  8  1  0  0  0  0
  7 41  1  0  0  0  0
  8  9  1  0  0  0  0
  9 10  2  0  0  0  0
  9 11  1  0  0  0  0
 11 15  1  0  0  0  0
 11 12  2  0  0  0  0
 12 13  1  0  0  0  0
 13 14  1  0  0  0  0
 13 26  1  0  0  0  0
 13 42  1  0  0  0  0
 14 15  1  0  0  0  0
 14 16  1  0  0  0  0
 15 43  1  0  0  0  0
 15 44  1  0  0  0  0
 16 17  2  0  0  0  0
 16 18  1  0  0  0  0
 18 19  1  0  0  0  0
 19 20  1  0  0  0  0
 19 45  1  0  0  0  0
 19 46  1  0  0  0  0
 20 25  2  0  0  0  0
 20 21  1  0  0  0  0
 21 22  2  0  0  0  0
 21 47  1  0  0  0  0
 22 23  1  0  0  0  0
 22 48  1  0  0  0  0
 23 24  2  0  0  0  0
 24 25  1  0  0  0  0
 24 49  1  0  0  0  0
 25 50  1  0  0  0  0
 26 31  2  0  0  0  0
 26 27  1  0  0  0  0
 27 28  2  0  0  0  0
 27 51  1  0  0  0  0
 28 29  1  0  0  0  0
 28 52  1  0  0  0  0
 29 34  1  0  0  0  0
 29 30  2  0  0  0  0
 30 31  1  0  0  0  0
 30 32  1  0  0  0  0
 31 53  1  0  0  0  0
 32 33  1  0  0  0  0
 33 34  1  0  0  0  0
 33 54  1  0  0  0  0
 33 55  1  0  0  0  0
M  END
$$$$
CHEMBL351813
  -OEChem-07121202283D

 52 57  0     1  0  0  0  0  0999 V2000
   -0.0165    1.3628    0.0095 C   0  0  0  0  0  0  0  0  0  0  0  0
    1.1698    2.0838    0.0021 C   0  0  0  0  0  0  0  0  0  0  0  0
    2.3862    1.4376   -0.0135 C   0  0  0  0  0  0  0  0  0  0  0  0
    2.4284    0.0458   -0.0214 C   0  0  0  0  0  0  0  0  0  0  0  0
    1.2231   -0.6777   -0.0133 C   0  0  0  0  0  0  0  0  0  0  0  0
    0.0021   -0.0041    0.0020 C   0  0  0  0  0  0  0  0  0  0  0  0
    1.2934   -2.1480   -0.0219 C   0  0  0  0  0  0  0  0  0  0  0  0
    2.5744   -2.7535   -0.0380 C   0  0  0  0  0  0  0  0  0  0  0  0
    3.6874   -1.9921   -0.0449 C   0  0  0  0  0  0  0  0  0  0  0  0
    3.6240   -0.6315   -0.0374 N   0  0  0  0  0  0  0  0  0  0  0  0
    4.9010   -2.8944   -0.0614 C   0  0  2  0  0  0  0  0  0  0  0  0
    5.4905   -2.7047   -0.9584 H   0  0  0  0  0  0  0  0  0  0  0  0
    4.4244   -4.2808   -0.0638 N   0  0  0  0  0  0  0  0  0  0  0  0
    2.9595   -4.2121   -0.0492 C   0  0  0  0  0  0  0  0  0  0  0  0
    5.1813   -5.3958   -0.0778 C   0  0  0  0  0  0  0  0  0  0  0  0
    6.3932   -5.3074   -0.0901 O   0  0  0  0  0  0  0  0  0  0  0  0
    4.5948   -6.6077   -0.0782 O   0  0  0  0  0  0  0  0  0  0  0  0
    5.4581   -7.7463   -0.0934 C   0  0  0  0  0  0  0  0  0  0  0  0
    4.6295   -9.0051   -0.0915 C   0  0  0  0  0  0  0  0  0  0  0  0
    4.2469   -9.6011    1.1005 C   0  0  0  0  0  0  0  0  0  0  0  0
    3.4871  -10.7549    1.0630 C   0  0  0  0  0  0  0  0  0  0  0  0
    3.1270  -11.2884   -0.0880 N   0  0  0  0  0  0  0  0  0  0  0  0
    3.4726  -10.7490   -1.2406 C   0  0  0  0  0  0  0  0  0  0  0  0
    4.2267   -9.5915   -1.2815 C   0  0  0  0  0  0  0  0  0  0  0  0
    5.7410   -2.6434    1.1644 C   0  0  0  0  0  0  0  0  0  0  0  0
    5.3866   -3.2150    2.3723 C   0  0  0  0  0  0  0  0  0  0  0  0
    6.1542   -2.9881    3.4993 C   0  0  0  0  0  0  0  0  0  0  0  0
    7.2813   -2.1861    3.4207 C   0  0  0  0  0  0  0  0  0  0  0  0
    7.6382   -1.6103    2.2039 C   0  0  0  0  0  0  0  0  0  0  0  0
    6.8674   -1.8468    1.0772 C   0  0  0  0  0  0  0  0  0  0  0  0
    8.7728   -0.8735    2.3861 O   0  0  0  0  0  0  0  0  0  0  0  0
    8.8762   -0.6722    3.8081 C   0  0  0  0  0  0  0  0  0  0  0  0
    8.1922   -1.8101    4.3652 O   0  0  0  0  0  0  0  0  0  0  0  0
    0.2786   -2.8253   -0.0151 O   0  0  0  0  0  0  0  0  0  0  0  0
   -0.9613    1.8858    0.0259 H   0  0  0  0  0  0  0  0  0  0  0  0
    1.1386    3.1633    0.0082 H   0  0  0  0  0  0  0  0  0  0  0  0
    3.3032    2.0080   -0.0199 H   0  0  0  0  0  0  0  0  0  0  0  0
   -0.9242   -0.5595    0.0083 H   0  0  0  0  0  0  0  0  0  0  0  0
    2.5749   -4.7034    0.8446 H   0  0  0  0  0  0  0  0  0  0  0  0
    2.5575   -4.6942   -0.9403 H   0  0  0  0  0  0  0  0  0  0  0  0
    6.0777   -7.7206   -0.9898 H   0  0  0  0  0  0  0  0  0  0  0  0
    6.0964   -7.7302    0.7900 H   0  0  0  0  0  0  0  0  0  0  0  0
    4.5393   -9.1694    2.0463 H   0  0  0  0  0  0  0  0  0  0  0  0
    3.1850  -11.2254    1.9871 H   0  0  0  0  0  0  0  0  0  0  0  0
    3.1593  -11.2148   -2.1632 H   0  0  0  0  0  0  0  0  0  0  0  0
    4.5024   -9.1517   -2.2286 H   0  0  0  0  0  0  0  0  0  0  0  0
    4.5080   -3.8398    2.4356 H   0  0  0  0  0  0  0  0  0  0  0  0
    5.8751   -3.4359    4.4416 H   0  0  0  0  0  0  0  0  0  0  0  0
    7.1444   -1.4052    0.1314 H   0  0  0  0  0  0  0  0  0  0  0  0
    9.9210   -0.6635    4.1187 H   0  0  0  0  0  0  0  0  0  0  0  0
    8.3808    0.2536    4.1009 H   0  0  0  0  0  0  0  0  0  0  0  0
    4.4504   -0.1236   -0.0431 H   0  0  0  0  0  0  0  0  0  0  0  0
  1  6  2  0  0  0  0
  1  2  1  0  0  0  0
  1 35  1  0  0  0  0
  2  3  2  0  0  0  0
  2 36  1  0  0  0  0
  3  4  1  0  0  0  0
  3 37  1  0  0  0  0
  4 10  1  0  0  0  0
  4  5  2  0  0  0  0
  5  6  1  0  0  0  0
  5  7  1  0  0  0  0
  6 38  1  0  0  0  0
  7  8  1  0  0  0  0
  7 34  2  0  0  0  0
  8 14  1  0  0  0  0
  8  9  2  0  0  0  0
  9 10  1  0  0  0  0
  9 11  1  0  0  0  0
 10 52  1  0  0  0  0
 11 12  1  0  0  0  0
 11 13  1  0  0  0  0
 11 25  1  0  0  0  0
 13 14  1  0  0  0  0
 13 15  1  0  0  0  0
 14 39  1  0  0  0  0
 14 40  1  0  0  0  0
 15 16  2  0  0  0  0
 15 17  1  0  0  0  0
 17 18  1  0  0  0  0
 18 19  1  0  0  0  0
 18 41  1  0  0  0  0
 18 42  1  0  0  0  0
 19 24  2  0  0  0  0
 19 20  1  0  0  0  0
 20 21  2  0  0  0  0
 20 43  1  0  0  0  0
 21 22  1  0  0  0  0
 21 44  1  0  0  0  0
 22 23  2  0  0  0  0
 23 24  1  0  0  0  0
 23 45  1  0  0  0  0
 24 46  1  0  0  0  0
 25 30  2  0  0  0  0
 25 26  1  0  0  0  0
 26 27  2  0  0  0  0
 26 47  1  0  0  0  0
 27 28  1  0  0  0  0
 27 48  1  0  0  0  0
 28 33  1  0  0  0  0
 28 29  2  0  0  0  0
 29 30  1  0  0  0  0
 29 31  1  0  0  0  0
 30 49  1  0  0  0  0
 31 32  1  0  0  0  0
 32 33  1  0  0  0  0
 32 50  1  0  0  0  0
 32 51  1  0  0  0  0
M  END
$$$$
CHEMBL361864
  -OEChem-07121202283D

 42 45  0     0  0  0  0  0  0999 V2000
   -0.0187    1.5258    0.0104 C   0  0  0  0  0  0  0  0  0  0  0  0
    0.0021   -0.0041    0.0020 C   0  0  0  0  0  0  0  0  0  0  0  0
   -1.3386   -0.4987    0.0122 O   0  0  0  0  0  0  0  0  0  0  0  0
   -1.4982   -1.8470    0.0064 C   0  0  0  0  0  0  0  0  0  0  0  0
   -0.3893   -2.6790   -0.0028 C   0  0  0  0  0  0  0  0  0  0  0  0
   -0.5531   -4.0506   -0.0086 C   0  0  0  0  0  0  0  0  0  0  0  0
   -1.8225   -4.6030   -0.0047 C   0  0  0  0  0  0  0  0  0  0  0  0
   -2.9352   -3.7879    0.0049 C   0  0  0  0  0  0  0  0  0  0  0  0
   -2.7822   -2.4021    0.0157 C   0  0  0  0  0  0  0  0  0  0  0  0
   -3.9735   -1.5219    0.0318 C   0  0  0  0  0  0  0  0  0  0  0  0
   -5.1769   -2.0741    0.0457 N   0  0  0  0  0  0  0  0  0  0  0  0
   -6.2674   -1.3161    0.0604 C   0  0  0  0  0  0  0  0  0  0  0  0
   -6.1312    0.0849    0.0609 C   0  0  0  0  0  0  0  0  0  0  0  0
   -4.8306    0.6256    0.0458 C   0  0  0  0  0  0  0  0  0  0  0  0
   -3.7985   -0.2036    0.0372 N   0  0  0  0  0  0  0  0  0  0  0  0
   -4.6398    1.9661    0.0452 O   0  5  0  0  0  0  0  0  0  0  0  0
   -7.3651    0.6177    0.0766 N   0  0  0  0  0  0  0  0  0  0  0  0
   -8.2513   -0.3159    0.0857 N   0  0  0  0  0  0  0  0  0  0  0  0
   -7.6122   -1.5650    0.0761 N   0  0  0  0  0  0  0  0  0  0  0  0
   -8.2592   -2.8794    0.0818 C   0  0  0  0  0  0  0  0  0  0  0  0
   -9.2121   -3.0045   -1.1249 C   0  0  0  0  0  0  0  0  0  0  0  0
  -10.4169   -3.8082   -0.5757 C   0  0  0  0  0  0  0  0  0  0  0  0
  -10.5745   -3.2494    0.8603 C   0  0  0  0  0  0  0  0  0  0  0  0
   -9.1254   -3.0350    1.3440 C   0  0  0  0  0  0  0  0  0  0  0  0
    1.0039    1.9031    0.0027 H   0  0  0  0  0  0  0  0  0  0  0  0
   -0.5459    1.8868   -0.8726 H   0  0  0  0  0  0  0  0  0  0  0  0
   -0.5289    1.8773    0.9072 H   0  0  0  0  0  0  0  0  0  0  0  0
    0.5123   -0.3556   -0.8948 H   0  0  0  0  0  0  0  0  0  0  0  0
    0.5293   -0.3651    0.8851 H   0  0  0  0  0  0  0  0  0  0  0  0
    0.6037   -2.2543   -0.0059 H   0  0  0  0  0  0  0  0  0  0  0  0
    0.3134   -4.6952   -0.0165 H   0  0  0  0  0  0  0  0  0  0  0  0
   -1.9420   -5.6764   -0.0097 H   0  0  0  0  0  0  0  0  0  0  0  0
   -3.9238   -4.2227    0.0079 H   0  0  0  0  0  0  0  0  0  0  0  0
   -7.5057   -3.6662    0.0466 H   0  0  0  0  0  0  0  0  0  0  0  0
   -9.5328   -2.0187   -1.4616 H   0  0  0  0  0  0  0  0  0  0  0  0
   -8.7296   -3.5479   -1.9373 H   0  0  0  0  0  0  0  0  0  0  0  0
  -11.3123   -3.6140   -1.1662 H   0  0  0  0  0  0  0  0  0  0  0  0
  -10.1918   -4.8745   -0.5527 H   0  0  0  0  0  0  0  0  0  0  0  0
  -11.1152   -2.3031    0.8441 H   0  0  0  0  0  0  0  0  0  0  0  0
  -11.0862   -3.9714    1.4966 H   0  0  0  0  0  0  0  0  0  0  0  0
   -8.7929   -3.8980    1.9210 H   0  0  0  0  0  0  0  0  0  0  0  0
   -9.0645   -2.1326    1.9523 H   0  0  0  0  0  0  0  0  0  0  0  0
  1  2  1  0  0  0  0
  1 25  1  0  0  0  0
  1 26  1  0  0  0  0
  1 27  1  0  0  0  0
  2  3  1  0  0  0  0
  2 28  1  0  0  0  0
  2 29  1  0  0  0  0
  3  4  1  0  0  0  0
  4  9  2  0  0  0  0
  4  5  1  0  0  0  0
  5  6  2  0  0  0  0
  5 30  1  0  0  0  0
  6  7  1  0  0  0  0
  6 31  1  0  0  0  0
  7  8  2  0  0  0  0
  7 32  1  0  0  0  0
  8  9  1  0  0  0  0
  8 33  1  0  0  0  0
  9 10  1  0  0  0  0
 10 15  2  0  0  0  0
 10 11  1  0  0  0  0
 11 12  2  0  0  0  0
 12 19  1  0  0  0  0
 12 13  1  0  0  0  0
 13 14  2  0  0  0  0
 13 17  1  0  0  0  0
 14 15  1  0  0  0  0
 14 16  1  0  0  0  0
 17 18  2  0  0  0  0
 18 19  1  0  0  0  0
 19 20  1  0  0  0  0
 20 24  1  0  0  0  0
 20 21  1  0  0  0  0
 20 34  1  0  0  0  0
 21 22  1  0  0  0  0
 21 35  1  0  0  0  0
 21 36  1  0  0  0  0
 22 23  1  0  0  0  0
 22 37  1  0  0  0  0
 22 38  1  0  0  0  0
 23 24  1  0  0  0  0
 23 39  1  0  0  0  0
 23 40  1  0  0  0  0
 24 41  1  0  0  0  0
 24 42  1  0  0  0  0
M  CHG  1  16  -1
M  END
$$$$
CHEMBL361864
  -OEChem-07121202283D

 43 46  0     0  0  0  0  0  0999 V2000
   -0.0187    1.5258    0.0104 C   0  0  0  0  0  0  0  0  0  0  0  0
    0.0021   -0.0041    0.0020 C   0  0  0  0  0  0  0  0  0  0  0  0
    0.6709   -0.4649   -1.1737 O   0  0  0  0  0  0  0  0  0  0  0  0
    0.7766   -1.8079   -1.3359 C   0  0  0  0  0  0  0  0  0  0  0  0
    0.2435   -2.6680   -0.3877 C   0  0  0  0  0  0  0  0  0  0  0  0
    0.3522   -4.0345   -0.5538 C   0  0  0  0  0  0  0  0  0  0  0  0
    0.9928   -4.5567   -1.6657 C   0  0  0  0  0  0  0  0  0  0  0  0
    1.5283   -3.7167   -2.6178 C   0  0  0  0  0  0  0  0  0  0  0  0
    1.4200   -2.3321   -2.4654 C   0  0  0  0  0  0  0  0  0  0  0  0
    1.9852   -1.4272   -3.4839 C   0  0  0  0  0  0  0  0  0  0  0  0
    2.5989   -1.9679   -4.5718 N   0  0  0  0  0  0  0  0  0  0  0  0
    3.1367   -1.1621   -5.5402 C   0  0  0  0  0  0  0  0  0  0  0  0
    3.0456    0.2202   -5.3950 C   0  0  0  0  0  0  0  0  0  0  0  0
    2.3704    0.7439   -4.1991 C   0  0  0  0  0  0  0  0  0  0  0  0
    1.8723   -0.1279   -3.3088 N   0  0  0  0  0  0  0  0  0  0  0  0
    2.2622    1.9465   -4.0212 O   0  0  0  0  0  0  0  0  0  0  0  0
    3.6370    0.7897   -6.4551 N   0  0  0  0  0  0  0  0  0  0  0  0
    4.0878   -0.1212   -7.2467 N   0  0  0  0  0  0  0  0  0  0  0  0
    3.7929   -1.3823   -6.7061 N   0  0  0  0  0  0  0  0  0  0  0  0
    4.1293   -2.6840   -7.2882 C   0  0  0  0  0  0  0  0  0  0  0  0
    5.6523   -2.7851   -7.5119 C   0  0  0  0  0  0  0  0  0  0  0  0
    5.7898   -3.5678   -8.8414 C   0  0  0  0  0  0  0  0  0  0  0  0
    4.6173   -3.0126   -9.6877 C   0  0  0  0  0  0  0  0  0  0  0  0
    3.4712   -2.8286   -8.6716 C   0  0  0  0  0  0  0  0  0  0  0  0
    1.0039    1.9031    0.0027 H   0  0  0  0  0  0  0  0  0  0  0  0
   -0.5459    1.8868   -0.8726 H   0  0  0  0  0  0  0  0  0  0  0  0
   -0.5289    1.8773    0.9072 H   0  0  0  0  0  0  0  0  0  0  0  0
    0.5293   -0.3651    0.8851 H   0  0  0  0  0  0  0  0  0  0  0  0
   -1.0205   -0.3814    0.0098 H   0  0  0  0  0  0  0  0  0  0  0  0
   -0.2571   -2.2685    0.4819 H   0  0  0  0  0  0  0  0  0  0  0  0
   -0.0644   -4.7002    0.1876 H   0  0  0  0  0  0  0  0  0  0  0  0
    1.0731   -5.6269   -1.7866 H   0  0  0  0  0  0  0  0  0  0  0  0
    2.0275   -4.1281   -3.4827 H   0  0  0  0  0  0  0  0  0  0  0  0
    3.7939   -3.4851   -6.6296 H   0  0  0  0  0  0  0  0  0  0  0  0
    6.0907   -1.7917   -7.6070 H   0  0  0  0  0  0  0  0  0  0  0  0
    6.1221   -3.3340   -6.6958 H   0  0  0  0  0  0  0  0  0  0  0  0
    6.7460   -3.3536   -9.3187 H   0  0  0  0  0  0  0  0  0  0  0  0
    5.6719   -4.6383   -8.6734 H   0  0  0  0  0  0  0  0  0  0  0  0
    4.8886   -2.0560  -10.1341 H   0  0  0  0  0  0  0  0  0  0  0  0
    4.3318   -3.7276  -10.4594 H   0  0  0  0  0  0  0  0  0  0  0  0
    2.8171   -3.7005   -8.6846 H   0  0  0  0  0  0  0  0  0  0  0  0
    2.9016   -1.9304   -8.9099 H   0  0  0  0  0  0  0  0  0  0  0  0
    2.6562   -2.9320   -4.6620 H   0  0  0  0  0  0  0  0  0  0  0  0
  1  2  1  0  0  0  0
  1 25  1  0  0  0  0
  1 26  1  0  0  0  0
  1 27  1  0  0  0  0
  2  3  1  0  0  0  0
  2 28  1  0  0  0  0
  2 29  1  0  0  0  0
  3  4  1  0  0  0  0
  4  9  2  0  0  0  0
  4  5  1  0  0  0  0
  5  6  2  0  0  0  0
  5 30  1  0  0  0  0
  6  7  1  0  0  0  0
  6 31  1  0  0  0  0
  7  8  2  0  0  0  0
  7 32  1  0  0  0  0
  8  9  1  0  0  0  0
  8 33  1  0  0  0  0
  9 10  1  0  0  0  0
 10 15  2  0  0  0  0
 10 11  1  0  0  0  0
 11 12  1  0  0  0  0
 11 43  1  0  0  0  0
 12 19  1  0  0  0  0
 12 13  2  0  0  0  0
 13 14  1  0  0  0  0
 13 17  1  0  0  0  0
 14 15  1  0  0  0  0
 14 16  2  0  0  0  0
 17 18  2  0  0  0  0
 18 19  1  0  0  0  0
 19 20  1  0  0  0  0
 20 24  1  0  0  0  0
 20 21  1  0  0  0  0
 20 34  1  0  0  0  0
 21 22  1  0  0  0  0
 21 35  1  0  0  0  0
 21 36  1  0  0  0  0
 22 23  1  0  0  0  0
 22 37  1  0  0  0  0
 22 38  1  0  0  0  0
 23 24  1  0  0  0  0
 23 39  1  0  0  0  0
 23 40  1  0  0  0  0
 24 41  1  0  0  0  0
 24 42  1  0  0  0  0
M  END
$$$$
CHEMBL1098055
  -OEChem-07121202283D

 61 64  0     0  0  0  0  0  0999 V2000
    0.6821    2.3843   -1.8806 C   0  0  0  0  0  0  0  0  0  0  0  0
    0.6416    0.9379   -1.3833 C   0  0  0  0  0  0  0  0  0  0  0  0
    1.1485    0.0054   -2.4852 C   0  0  0  0  0  0  0  0  0  0  0  0
    1.1107   -1.3455   -2.0207 O   0  0  0  0  0  0  0  0  0  0  0  0
    1.5663   -2.3026   -2.9791 C   0  0  0  0  0  0  0  0  0  0  0  0
    1.4824   -3.7067   -2.3772 C   0  0  0  0  0  0  0  0  0  0  0  0
    1.9494   -4.6879   -3.3596 N   0  0  0  0  0  0  0  0  0  0  0  0
    1.1838   -5.2913   -4.3228 C   0  0  0  0  0  0  0  0  0  0  0  0
    2.0347   -6.1535   -5.0359 C   0  0  0  0  0  0  0  0  0  0  0  0
    3.3170   -6.0337   -4.4592 C   0  0  0  0  0  0  0  0  0  0  0  0
    3.2590   -5.1704   -3.4840 N   0  0  0  0  0  0  0  0  0  0  0  0
    4.5514   -6.7764   -4.9017 C   0  0  0  0  0  0  0  0  0  0  0  0
    5.2823   -5.9601   -5.9696 C   0  0  0  0  0  0  0  0  0  0  0  0
    1.5269   -6.8723   -6.0465 N   0  0  0  0  0  0  0  0  0  0  0  0
    0.2501   -6.7707   -6.3648 C   0  0  0  0  0  0  0  0  0  0  0  0
   -0.5830   -5.9670   -5.7136 N   0  0  0  0  0  0  0  0  0  0  0  0
   -0.1647   -5.2193   -4.6995 C   0  0  0  0  0  0  0  0  0  0  0  0
   -1.0428   -4.3844   -4.0274 N   0  0  0  0  0  0  0  0  0  0  0  0
   -2.4040   -4.4305   -4.3141 C   0  0  0  0  0  0  0  0  0  0  0  0
   -2.8331   -4.9149   -5.5455 C   0  0  0  0  0  0  0  0  0  0  0  0
   -4.1887   -4.9551   -5.8172 C   0  0  0  0  0  0  0  0  0  0  0  0
   -5.0731   -4.5077   -4.8444 C   0  0  0  0  0  0  0  0  0  0  0  0
   -4.5775   -4.0396   -3.6440 C   0  0  0  0  0  0  0  0  0  0  0  0
   -3.2790   -4.0179   -3.4103 N   0  0  0  0  0  0  0  0  0  0  0  0
   -0.2388   -7.5296   -7.4164 N   0  0  0  0  0  0  0  0  0  0  0  0
    0.6093   -8.5263   -8.0883 C   0  0  0  0  0  0  0  0  0  0  0  0
   -0.1560   -9.8522   -8.1510 C   0  0  0  0  0  0  0  0  0  0  0  0
   -1.4590   -9.6344   -8.7920 N   0  3  0  0  0  0  0  0  0  0  0  0
   -2.2808   -8.7426   -7.9640 C   0  0  0  0  0  0  0  0  0  0  0  0
   -1.6225   -7.3657   -7.8883 C   0  0  0  0  0  0  0  0  0  0  0  0
    1.7068    2.6510   -2.1394 H   0  0  0  0  0  0  0  0  0  0  0  0
    0.0473    2.4836   -2.7611 H   0  0  0  0  0  0  0  0  0  0  0  0
    0.3209    3.0487   -1.0956 H   0  0  0  0  0  0  0  0  0  0  0  0
    1.2763    0.8386   -0.5027 H   0  0  0  0  0  0  0  0  0  0  0  0
   -0.3831    0.6712   -1.1245 H   0  0  0  0  0  0  0  0  0  0  0  0
    0.5138    0.1047   -3.3658 H   0  0  0  0  0  0  0  0  0  0  0  0
    2.1732    0.2721   -2.7440 H   0  0  0  0  0  0  0  0  0  0  0  0
    0.9402   -2.2512   -3.8699 H   0  0  0  0  0  0  0  0  0  0  0  0
    2.5997   -2.0838   -3.2481 H   0  0  0  0  0  0  0  0  0  0  0  0
    2.1085   -3.7582   -1.4864 H   0  0  0  0  0  0  0  0  0  0  0  0
    0.4490   -3.9255   -2.1081 H   0  0  0  0  0  0  0  0  0  0  0  0
    5.2100   -6.9285   -4.0467 H   0  0  0  0  0  0  0  0  0  0  0  0
    4.2648   -7.7430   -5.3161 H   0  0  0  0  0  0  0  0  0  0  0  0
    4.6236   -5.8080   -6.8247 H   0  0  0  0  0  0  0  0  0  0  0  0
    5.5688   -4.9936   -5.5553 H   0  0  0  0  0  0  0  0  0  0  0  0
    6.1751   -6.4973   -6.2897 H   0  0  0  0  0  0  0  0  0  0  0  0
   -0.7089   -3.7679   -3.3571 H   0  0  0  0  0  0  0  0  0  0  0  0
   -2.1174   -5.2546   -6.2795 H   0  0  0  0  0  0  0  0  0  0  0  0
   -4.5513   -5.3257   -6.7646 H   0  0  0  0  0  0  0  0  0  0  0  0
   -6.1377   -4.5255   -5.0253 H   0  0  0  0  0  0  0  0  0  0  0  0
   -5.2617   -3.6907   -2.8846 H   0  0  0  0  0  0  0  0  0  0  0  0
    0.8408   -8.1889   -9.0986 H   0  0  0  0  0  0  0  0  0  0  0  0
    1.5319   -8.6623   -7.5240 H   0  0  0  0  0  0  0  0  0  0  0  0
    0.4175  -10.5759   -8.7302 H   0  0  0  0  0  0  0  0  0  0  0  0
   -0.3071  -10.2329   -7.1408 H   0  0  0  0  0  0  0  0  0  0  0  0
   -1.3202   -9.2156   -9.6995 H   0  0  0  0  0  0  0  0  0  0  0  0
   -3.2730   -8.6487   -8.4054 H   0  0  0  0  0  0  0  0  0  0  0  0
   -2.3675   -9.1568   -6.9595 H   0  0  0  0  0  0  0  0  0  0  0  0
   -2.1747   -6.7347   -7.1919 H   0  0  0  0  0  0  0  0  0  0  0  0
   -1.6202   -6.9091   -8.8781 H   0  0  0  0  0  0  0  0  0  0  0  0
   -1.9309  -10.5195   -8.9014 H   0  0  0  0  0  0  0  0  0  0  0  0
  1  2  1  0  0  0  0
  1 31  1  0  0  0  0
  1 32  1  0  0  0  0
  1 33  1  0  0  0  0
  2  3  1  0  0  0  0
  2 34  1  0  0  0  0
  2 35  1  0  0  0  0
  3  4  1  0  0  0  0
  3 36  1  0  0  0  0
  3 37  1  0  0  0  0
  4  5  1  0  0  0  0
  5  6  1  0  0  0  0
  5 38  1  0  0  0  0
  5 39  1  0  0  0  0
  6  7  1  0  0  0  0
  6 40  1  0  0  0  0
  6 41  1  0  0  0  0
  7 11  1  0  0  0  0
  7  8  1  0  0  0  0
  8 17  2  0  0  0  0
  8  9  1  0  0  0  0
  9 10  1  0  0  0  0
  9 14  2  0  0  0  0
 10 11  2  0  0  0  0
 10 12  1  0  0  0  0
 12 13  1  0  0  0  0
 12 42  1  0  0  0  0
 12 43  1  0  0  0  0
 13 44  1  0  0  0  0
 13 45  1  0  0  0  0
 13 46  1  0  0  0  0
 14 15  1  0  0  0  0
 15 16  2  0  0  0  0
 15 25  1  0  0  0  0
 16 17  1  0  0  0  0
 17 18  1  0  0  0  0
 18 19  1  0  0  0  0
 18 47  1  0  0  0  0
 19 24  2  0  0  0  0
 19 20  1  0  0  0  0
 20 21  2  0  0  0  0
 20 48  1  0  0  0  0
 21 22  1  0  0  0  0
 21 49  1  0  0  0  0
 22 23  2  0  0  0  0
 22 50  1  0  0  0  0
 23 24  1  0  0  0  0
 23 51  1  0  0  0  0
 25 30  1  0  0  0  0
 25 26  1  0  0  0  0
 26 27  1  0  0  0  0
 26 52  1  0  0  0  0
 26 53  1  0  0  0  0
 27 28  1  0  0  0  0
 27 54  1  0  0  0  0
 27 55  1  0  0  0  0
 28 29  1  0  0  0  0
 28 56  1  0  0  0  0
 28 61  1  0  0  0  0
 29 30  1  0  0  0  0
 29 57  1  0  0  0  0
 29 58  1  0  0  0  0
 30 59  1  0  0  0  0
 30 60  1  0  0  0  0
M  CHG  1  28   1
M  END
$$$$
CHEMBL542707
  -OEChem-07121202283D

 39 42  0     0  0  0  0  0  0999 V2000
   -0.0173    1.4248    0.0099 C   0  0  0  0  0  0  0  0  0  0  0  0
    0.0021   -0.0041    0.0020 O   0  0  0  0  0  0  0  0  0  0  0  0
    0.6060   -0.6073   -1.0561 C   0  0  0  0  0  0  0  0  0  0  0  0
    1.1744    0.1731   -2.0651 C   0  0  0  0  0  0  0  0  0  0  0  0
    1.7855   -0.4038   -3.1372 C   0  0  0  0  0  0  0  0  0  0  0  0
    1.8488   -1.8007   -3.2348 C   0  0  0  0  0  0  0  0  0  0  0  0
    1.2746   -2.5973   -2.2144 C   0  0  0  0  0  0  0  0  0  0  0  0
    0.6564   -1.9831   -1.1198 C   0  0  0  0  0  0  0  0  0  0  0  0
    1.3533   -4.0066   -2.3382 C   0  0  0  0  0  0  0  0  0  0  0  0
    1.9604   -4.5105   -3.4028 N   0  0  0  0  0  0  0  0  0  0  0  0
    2.4858   -3.7254   -4.3372 C   0  0  0  0  0  0  0  0  0  0  0  0
    2.4412   -2.4108   -4.2726 N   0  0  0  0  0  0  0  0  0  0  0  0
    3.1116   -4.3189   -5.4329 N   0  0  0  0  0  0  0  0  0  0  0  0
    3.7098   -3.6679   -6.4827 C   0  0  0  0  0  0  0  0  0  0  0  0
    4.1840   -4.6173   -7.3104 C   0  0  0  0  0  0  0  0  0  0  0  0
    3.8875   -5.8168   -6.7873 N   0  0  0  0  0  0  0  0  0  0  0  0
    3.2501   -5.6525   -5.6610 C   0  0  0  0  0  0  0  0  0  0  0  0
    0.8125   -4.8326   -1.3753 N   0  0  0  0  0  0  0  0  0  0  0  0
    0.9046   -6.2873   -1.5223 C   0  0  0  0  0  0  0  0  0  0  0  0
    0.2412   -6.9542   -0.3449 C   0  0  0  0  0  0  0  0  0  0  0  0
   -1.0531   -7.3129   -0.2705 C   0  0  0  0  0  0  0  0  0  0  0  0
   -1.2428   -7.9001    1.0015 C   0  0  0  0  0  0  0  0  0  0  0  0
   -0.0532   -7.8652    1.6283 C   0  0  0  0  0  0  0  0  0  0  0  0
    0.8433   -7.2964    0.8058 O   0  0  0  0  0  0  0  0  0  0  0  0
    1.0053    1.8021    0.0021 H   0  0  0  0  0  0  0  0  0  0  0  0
   -0.5445    1.7859   -0.8732 H   0  0  0  0  0  0  0  0  0  0  0  0
   -0.5275    1.7763    0.9067 H   0  0  0  0  0  0  0  0  0  0  0  0
    1.1284    1.2499   -1.9947 H   0  0  0  0  0  0  0  0  0  0  0  0
    2.2198    0.2132   -3.9099 H   0  0  0  0  0  0  0  0  0  0  0  0
    0.2193   -2.5816   -0.3341 H   0  0  0  0  0  0  0  0  0  0  0  0
    3.7849   -2.5992   -6.6188 H   0  0  0  0  0  0  0  0  0  0  0  0
    4.7122   -4.4436   -8.2362 H   0  0  0  0  0  0  0  0  0  0  0  0
    2.8905   -6.4429   -5.0188 H   0  0  0  0  0  0  0  0  0  0  0  0
    0.3711   -4.4504   -0.6008 H   0  0  0  0  0  0  0  0  0  0  0  0
    0.4046   -6.5920   -2.4417 H   0  0  0  0  0  0  0  0  0  0  0  0
    1.9530   -6.5826   -1.5639 H   0  0  0  0  0  0  0  0  0  0  0  0
   -1.8034   -7.1776   -1.0354 H   0  0  0  0  0  0  0  0  0  0  0  0
   -2.1660   -8.2998    1.3947 H   0  0  0  0  0  0  0  0  0  0  0  0
    0.1479   -8.2354    2.6227 H   0  0  0  0  0  0  0  0  0  0  0  0
  1  2  1  0  0  0  0
  1 25  1  0  0  0  0
  1 26  1  0  0  0  0
  1 27  1  0  0  0  0
  2  3  1  0  0  0  0
  3  8  2  0  0  0  0
  3  4  1  0  0  0  0
  4  5  2  0  0  0  0
  4 28  1  0  0  0  0
  5  6  1  0  0  0  0
  5 29  1  0  0  0  0
  6 12  2  0  0  0  0
  6  7  1  0  0  0  0
  7  8  1  0  0  0  0
  7  9  2  0  0  0  0
  8 30  1  0  0  0  0
  9 10  1  0  0  0  0
  9 18  1  0  0  0  0
 10 11  2  0  0  0  0
 11 12  1  0  0  0  0
 11 13  1  0  0  0  0
 13 17  1  0  0  0  0
 13 14  1  0  0  0  0
 14 15  2  0  0  0  0
 14 31  1  0  0  0  0
 15 16  1  0  0  0  0
 15 32  1  0  0  0  0
 16 17  2  0  0  0  0
 17 33  1  0  0  0  0
 18 19  1  0  0  0  0
 18 34  1  0  0  0  0
 19 20  1  0  0  0  0
 19 35  1  0  0  0  0
 19 36  1  0  0  0  0
 20 24  1  0  0  0  0
 20 21  2  0  0  0  0
 21 22  1  0  0  0  0
 21 37  1  0  0  0  0
 22 23  2  0  0  0  0
 22 38  1  0  0  0  0
 23 24  1  0  0  0  0
 23 39  1  0  0  0  0
M  END
$$$$
CHEMBL594160
  -OEChem-07121202283D

 57 59  0     0  0  0  0  0  0999 V2000
   -0.0178    1.4608    0.0101 C   0  0  0  0  0  0  0  0  0  0  0  0
    0.0021   -0.0041    0.0020 N   0  0  0  0  0  0  0  0  0  0  0  0
    0.0232   -0.7112    1.2117 C   0  0  0  0  0  0  0  0  0  0  0  0
   -1.1548   -1.0736    1.8040 C   0  0  0  0  0  0  0  0  0  0  0  0
   -1.1343   -1.7803    3.0119 C   0  0  0  0  0  0  0  0  0  0  0  0
    0.1040   -2.1158    3.6136 C   0  0  0  0  0  0  0  0  0  0  0  0
    1.2986   -1.7348    2.9901 C   0  0  0  0  0  0  0  0  0  0  0  0
    1.2527   -1.0448    1.7992 C   0  0  0  0  0  0  0  0  0  0  0  0
    2.4101   -0.6790    1.1895 O   0  0  0  0  0  0  0  0  0  0  0  0
    2.9540    0.5949    1.5410 C   0  0  0  0  0  0  0  0  0  0  0  0
    2.6251   -2.0822    3.6151 C   0  0  0  0  0  0  0  0  0  0  0  0
    3.0910   -3.4449    3.0985 C   0  0  0  0  0  0  0  0  0  0  0  0
    4.3489   -3.7744    3.6912 O   0  0  0  0  0  0  0  0  0  0  0  0
    0.0952   -2.7942    4.7717 N   0  0  0  0  0  0  0  0  0  0  0  0
   -1.0396   -3.1381    5.3325 C   0  0  0  0  0  0  0  0  0  0  0  0
   -2.2193   -2.8467    4.8076 N   0  0  0  0  0  0  0  0  0  0  0  0
   -2.3243   -2.1795    3.6660 C   0  0  0  0  0  0  0  0  0  0  0  0
   -3.5605   -1.8823    3.1306 N   0  0  0  0  0  0  0  0  0  0  0  0
   -4.7799   -2.3050    3.8240 C   0  0  0  0  0  0  0  0  0  0  0  0
   -5.9853   -1.8597    3.0368 C   0  0  0  0  0  0  0  0  0  0  0  0
   -6.5478   -0.6198    3.2783 C   0  0  0  0  0  0  0  0  0  0  0  0
   -7.6532   -0.2090    2.5587 C   0  0  0  0  0  0  0  0  0  0  0  0
   -8.1991   -1.0411    1.5925 C   0  0  0  0  0  0  0  0  0  0  0  0
   -7.6328   -2.2853    1.3512 C   0  0  0  0  0  0  0  0  0  0  0  0
   -6.5235   -2.6893    2.0707 C   0  0  0  0  0  0  0  0  0  0  0  0
   -8.3127   -3.3300    0.1429 Cl  0  0  0  0  0  0  0  0  0  0  0  0
   -9.2870   -0.6392    0.8836 O   0  0  0  0  0  0  0  0  0  0  0  0
   -9.8169    0.6531    1.1856 C   0  0  0  0  0  0  0  0  0  0  0  0
    0.0001   -0.6716   -1.1688 C   0  0  0  0  0  0  0  0  0  0  0  0
    0.0165   -1.8867   -1.1755 O   0  0  0  0  0  0  0  0  0  0  0  0
   -0.0202    0.0079   -2.3312 O   0  0  0  0  0  0  0  0  0  0  0  0
   -0.0211   -0.7639   -3.5339 C   0  0  0  0  0  0  0  0  0  0  0  0
    1.0048    1.8381    0.0023 H   0  0  0  0  0  0  0  0  0  0  0  0
   -0.5450    1.8219   -0.8730 H   0  0  0  0  0  0  0  0  0  0  0  0
   -0.5280    1.8123    0.9069 H   0  0  0  0  0  0  0  0  0  0  0  0
   -2.0964   -0.8155    1.3422 H   0  0  0  0  0  0  0  0  0  0  0  0
    3.8758    0.7626    0.9839 H   0  0  0  0  0  0  0  0  0  0  0  0
    2.2348    1.3768    1.2973 H   0  0  0  0  0  0  0  0  0  0  0  0
    3.1664    0.6169    2.6099 H   0  0  0  0  0  0  0  0  0  0  0  0
    3.3610   -1.3227    3.3514 H   0  0  0  0  0  0  0  0  0  0  0  0
    2.5166   -2.1223    4.6990 H   0  0  0  0  0  0  0  0  0  0  0  0
    2.3550   -4.2045    3.3623 H   0  0  0  0  0  0  0  0  0  0  0  0
    3.1994   -3.4049    2.0147 H   0  0  0  0  0  0  0  0  0  0  0  0
    4.7055   -4.6276    3.4085 H   0  0  0  0  0  0  0  0  0  0  0  0
   -1.0101   -3.6838    6.2640 H   0  0  0  0  0  0  0  0  0  0  0  0
   -3.6224   -1.3934    2.2951 H   0  0  0  0  0  0  0  0  0  0  0  0
   -4.7872   -3.3910    3.9166 H   0  0  0  0  0  0  0  0  0  0  0  0
   -4.8078   -1.8555    4.8166 H   0  0  0  0  0  0  0  0  0  0  0  0
   -6.1227    0.0280    4.0306 H   0  0  0  0  0  0  0  0  0  0  0  0
   -8.0922    0.7594    2.7485 H   0  0  0  0  0  0  0  0  0  0  0  0
   -6.0797   -3.6555    1.8809 H   0  0  0  0  0  0  0  0  0  0  0  0
  -10.1208    0.6858    2.2319 H   0  0  0  0  0  0  0  0  0  0  0  0
   -9.0537    1.4101    1.0051 H   0  0  0  0  0  0  0  0  0  0  0  0
  -10.6805    0.8492    0.5501 H   0  0  0  0  0  0  0  0  0  0  0  0
    0.8771   -1.3804   -3.5706 H   0  0  0  0  0  0  0  0  0  0  0  0
   -0.9027   -1.4046   -3.5538 H   0  0  0  0  0  0  0  0  0  0  0  0
   -0.0383   -0.0954   -4.3946 H   0  0  0  0  0  0  0  0  0  0  0  0
  1  2  1  0  0  0  0
  1 33  1  0  0  0  0
  1 34  1  0  0  0  0
  1 35  1  0  0  0  0
  2  3  1  0  0  0  0
  2 29  1  0  0  0  0
  3  8  2  0  0  0  0
  3  4  1  0  0  0  0
  4  5  2  0  0  0  0
  4 36  1  0  0  0  0
  5 17  1  0  0  0  0
  5  6  1  0  0  0  0
  6  7  2  0  0  0  0
  6 14  1  0  0  0  0
  7  8  1  0  0  0  0
  7 11  1  0  0  0  0
  8  9  1  0  0  0  0
  9 10  1  0  0  0  0
 10 37  1  0  0  0  0
 10 38  1  0  0  0  0
 10 39  1  0  0  0  0
 11 12  1  0  0  0  0
 11 40  1  0  0  0  0
 11 41  1  0  0  0  0
 12 13  1  0  0  0  0
 12 42  1  0  0  0  0
 12 43  1  0  0  0  0
 13 44  1  0  0  0  0
 14 15  2  0  0  0  0
 15 16  1  0  0  0  0
 15 45  1  0  0  0  0
 16 17  2  0  0  0  0
 17 18  1  0  0  0  0
 18 19  1  0  0  0  0
 18 46  1  0  0  0  0
 19 20  1  0  0  0  0
 19 47  1  0  0  0  0
 19 48  1  0  0  0  0
 20 25  2  0  0  0  0
 20 21  1  0  0  0  0
 21 22  2  0  0  0  0
 21 49  1  0  0  0  0
 22 23  1  0  0  0  0
 22 50  1  0  0  0  0
 23 24  2  0  0  0  0
 23 27  1  0  0  0  0
 24 25  1  0  0  0  0
 24 26  1  0  0  0  0
 25 51  1  0  0  0  0
 27 28  1  0  0  0  0
 28 52  1  0  0  0  0
 28 53  1  0  0  0  0
 28 54  1  0  0  0  0
 29 30  2  0  0  0  0
 29 31  1  0  0  0  0
 31 32  1  0  0  0  0
 32 55  1  0  0  0  0
 32 56  1  0  0  0  0
 32 57  1  0  0  0  0
M  END
$$$$
CHEMBL100503
  -OEChem-07121202283D

 59 62  0     0  0  0  0  0  0999 V2000
   -0.0187    1.5258    0.0104 C   0  0  0  0  0  0  0  0  0  0  0  0
    0.0021   -0.0041    0.0020 C   0  0  0  0  0  0  0  0  0  0  0  0
   -1.3723   -0.5112    0.0124 N   0  0  0  0  0  0  0  0  0  0  0  0
   -2.0842   -0.8782    1.1013 C   0  0  0  0  0  0  0  0  0  0  0  0
   -3.2726   -1.2806    0.7454 N   0  0  0  0  0  0  0  0  0  0  0  0
   -3.4005   -1.1983   -0.5923 C   0  0  0  0  0  0  0  0  0  0  0  0
   -2.1855   -0.6981   -1.0876 C   0  0  0  0  0  0  0  0  0  0  0  0
   -2.0486   -0.5078   -2.4641 C   0  0  0  0  0  0  0  0  0  0  0  0
   -3.0765   -0.8052   -3.2538 N   0  0  0  0  0  0  0  0  0  0  0  0
   -4.2117   -1.2736   -2.7518 C   0  0  0  0  0  0  0  0  0  0  0  0
   -4.3817   -1.4758   -1.4573 N   0  0  0  0  0  0  0  0  0  0  0  0
   -5.2556   -1.5687   -3.6183 N   0  0  0  0  0  0  0  0  0  0  0  0
   -6.4476   -2.0573   -3.1220 C   0  0  0  0  0  0  0  0  0  0  0  0
   -7.5355   -2.3943   -3.7924 N   0  0  0  0  0  0  0  0  0  0  0  0
   -8.6012   -2.8473   -3.1830 C   0  0  0  0  0  0  0  0  0  0  0  0
   -8.5230   -2.9525   -1.8002 C   0  0  0  0  0  0  0  0  0  0  0  0
   -6.8574   -2.3721   -1.5204 S   0  0  0  0  0  0  0  0  0  0  0  0
   -9.4939   -3.4015   -0.8697 C   0  0  0  0  0  0  0  0  0  0  0  0
  -10.5868   -3.7676   -1.2597 O   0  0  0  0  0  0  0  0  0  0  0  0
   -9.2059   -3.4230    0.4485 O   0  0  0  0  0  0  0  0  0  0  0  0
  -10.2312   -3.8873    1.3290 C   0  0  0  0  0  0  0  0  0  0  0  0
   -9.7243   -3.8399    2.7719 C   0  0  0  0  0  0  0  0  0  0  0  0
   -9.8457   -3.2332   -3.9401 C   0  0  0  0  0  0  0  0  0  0  0  0
   -0.8666   -0.0187   -2.9960 N   0  0  0  0  0  0  0  0  0  0  0  0
   -0.7394    0.1753   -4.4426 C   0  0  0  0  0  0  0  0  0  0  0  0
    0.6327    0.7124   -4.7586 C   0  0  0  0  0  0  0  0  0  0  0  0
    0.8517    2.0770   -4.7842 C   0  0  0  0  0  0  0  0  0  0  0  0
    2.1103    2.5697   -5.0741 C   0  0  0  0  0  0  0  0  0  0  0  0
    3.1500    1.6978   -5.3379 C   0  0  0  0  0  0  0  0  0  0  0  0
    2.9312    0.3331   -5.3114 C   0  0  0  0  0  0  0  0  0  0  0  0
    1.6736   -0.1597   -5.0173 C   0  0  0  0  0  0  0  0  0  0  0  0
    4.7541    2.3258   -5.7086 S   0  0  0  0  0  0  0  0  0  0  0  0
    5.4231    1.3171   -6.4529 O   0  0  0  0  0  0  0  0  0  0  0  0
    4.5691    3.6438   -6.2066 O   0  0  0  0  0  0  0  0  0  0  0  0
    5.5664    2.4720   -4.2730 N   0  0  0  0  0  0  0  0  0  0  0  0
    1.0039    1.9031    0.0027 H   0  0  0  0  0  0  0  0  0  0  0  0
   -0.5459    1.8868   -0.8726 H   0  0  0  0  0  0  0  0  0  0  0  0
   -0.5289    1.8773    0.9072 H   0  0  0  0  0  0  0  0  0  0  0  0
    0.5123   -0.3556   -0.8948 H   0  0  0  0  0  0  0  0  0  0  0  0
    0.5293   -0.3651    0.8851 H   0  0  0  0  0  0  0  0  0  0  0  0
   -1.7215   -0.8435    2.1180 H   0  0  0  0  0  0  0  0  0  0  0  0
   -5.1475   -1.4315   -4.5725 H   0  0  0  0  0  0  0  0  0  0  0  0
  -11.1100   -3.2498    1.2316 H   0  0  0  0  0  0  0  0  0  0  0  0
  -10.4956   -4.9126    1.0703 H   0  0  0  0  0  0  0  0  0  0  0  0
   -8.8455   -4.4774    2.8693 H   0  0  0  0  0  0  0  0  0  0  0  0
   -9.4599   -2.8146    3.0306 H   0  0  0  0  0  0  0  0  0  0  0  0
  -10.5063   -4.1940    3.4435 H   0  0  0  0  0  0  0  0  0  0  0  0
   -9.7914   -4.2864   -4.2157 H   0  0  0  0  0  0  0  0  0  0  0  0
  -10.7201   -3.0670   -3.3108 H   0  0  0  0  0  0  0  0  0  0  0  0
   -9.9259   -2.6255   -4.8414 H   0  0  0  0  0  0  0  0  0  0  0  0
   -0.1233    0.1954   -2.4108 H   0  0  0  0  0  0  0  0  0  0  0  0
   -0.8823   -0.7782   -4.9510 H   0  0  0  0  0  0  0  0  0  0  0  0
   -1.4943    0.8846   -4.7818 H   0  0  0  0  0  0  0  0  0  0  0  0
    0.0394    2.7583   -4.5781 H   0  0  0  0  0  0  0  0  0  0  0  0
    2.2813    3.6359   -5.0949 H   0  0  0  0  0  0  0  0  0  0  0  0
    3.7434   -0.3481   -5.5178 H   0  0  0  0  0  0  0  0  0  0  0  0
    1.5035   -1.2259   -4.9929 H   0  0  0  0  0  0  0  0  0  0  0  0
    6.5312    2.3740   -4.2494 H   0  0  0  0  0  0  0  0  0  0  0  0
    5.0775    2.6556   -3.4556 H   0  0  0  0  0  0  0  0  0  0  0  0
  1  2  1  0  0  0  0
  1 36  1  0  0  0  0
  1 37  1  0  0  0  0
  1 38  1  0  0  0  0
  2  3  1  0  0  0  0
  2 39  1  0  0  0  0
  2 40  1  0  0  0  0
  3  7  1  0  0  0  0
  3  4  1  0  0  0  0
  4  5  2  0  0  0  0
  4 41  1  0  0  0  0
  5  6  1  0  0  0  0
  6 11  2  0  0  0  0
  6  7  1  0  0  0  0
  7  8  2  0  0  0  0
  8  9  1  0  0  0  0
  8 24  1  0  0  0  0
  9 10  2  0  0  0  0
 10 11  1  0  0  0  0
 10 12  1  0  0  0  0
 12 13  1  0  0  0  0
 12 42  1  0  0  0  0
 13 17  1  0  0  0  0
 13 14  2  0  0  0  0
 14 15  1  0  0  0  0
 15 16  2  0  0  0  0
 15 23  1  0  0  0  0
 16 17  1  0  0  0  0
 16 18  1  0  0  0  0
 18 19  2  0  0  0  0
 18 20  1  0  0  0  0
 20 21  1  0  0  0  0
 21 22  1  0  0  0  0
 21 43  1  0  0  0  0
 21 44  1  0  0  0  0
 22 45  1  0  0  0  0
 22 46  1  0  0  0  0
 22 47  1  0  0  0  0
 23 48  1  0  0  0  0
 23 49  1  0  0  0  0
 23 50  1  0  0  0  0
 24 25  1  0  0  0  0
 24 51  1  0  0  0  0
 25 26  1  0  0  0  0
 25 52  1  0  0  0  0
 25 53  1  0  0  0  0
 26 31  2  0  0  0  0
 26 27  1  0  0  0  0
 27 28  2  0  0  0  0
 27 54  1  0  0  0  0
 28 29  1  0  0  0  0
 28 55  1  0  0  0  0
 29 30  2  0  0  0  0
 29 32  1  0  0  0  0
 30 31  1  0  0  0  0
 30 56  1  0  0  0  0
 31 57  1  0  0  0  0
 32 33  2  0  0  0  0
 32 34  2  0  0  0  0
 32 35  1  0  0  0  0
 35 58  1  0  0  0  0
 35 59  1  0  0  0  0
M  END
$$$$
CHEMBL100503
  -OEChem-07121202283D

 60 63  0     0  0  0  0  0  0999 V2000
   -0.0179    1.5296    0.0061 C   0  0  0  0  0  0  0  0  0  0  0  0
    0.0003   -0.0002    0.0029 C   0  0  0  0  0  0  0  0  0  0  0  0
   -1.3749   -0.5051    0.0134 N   0  0  0  0  0  0  0  0  0  0  0  0
   -2.0887   -0.8672    1.1027 C   0  0  0  0  0  0  0  0  0  0  0  0
   -3.2773   -1.2689    0.7467 N   0  0  0  0  0  0  0  0  0  0  0  0
   -3.4035   -1.1910   -0.5914 C   0  0  0  0  0  0  0  0  0  0  0  0
   -2.1871   -0.6945   -1.0869 C   0  0  0  0  0  0  0  0  0  0  0  0
   -2.0483   -0.5090   -2.4639 C   0  0  0  0  0  0  0  0  0  0  0  0
   -3.0757   -0.8075   -3.2538 N   0  0  0  0  0  0  0  0  0  0  0  0
   -4.2123   -1.2724   -2.7516 C   0  0  0  0  0  0  0  0  0  0  0  0
   -4.3841   -1.4698   -1.4566 N   0  3  0  0  0  0  0  0  0  0  0  0
   -5.2556   -1.5687   -3.6183 N   0  0  0  0  0  0  0  0  0  0  0  0
   -5.1400   -1.2774   -4.9628 C   0  0  0  0  0  0  0  0  0  0  0  0
   -6.0566   -1.3977   -5.9072 N   0  0  0  0  0  0  0  0  0  0  0  0
   -5.8026   -1.0803   -7.1510 C   0  0  0  0  0  0  0  0  0  0  0  0
   -4.5223   -0.6129   -7.4189 C   0  0  0  0  0  0  0  0  0  0  0  0
   -3.8006   -0.6778   -5.7868 S   0  0  0  0  0  0  0  0  0  0  0  0
   -3.9494   -0.1947   -8.6466 C   0  0  0  0  0  0  0  0  0  0  0  0
   -4.6123   -0.2182   -9.6666 O   0  0  0  0  0  0  0  0  0  0  0  0
   -2.6688    0.2293   -8.6837 O   0  0  0  0  0  0  0  0  0  0  0  0
   -2.1566    0.6358   -9.9543 C   0  0  0  0  0  0  0  0  0  0  0  0
   -0.7009    1.0805   -9.7988 C   0  0  0  0  0  0  0  0  0  0  0  0
   -6.8421   -1.2151   -8.2337 C   0  0  0  0  0  0  0  0  0  0  0  0
   -0.8649   -0.0237   -2.9961 N   0  0  0  0  0  0  0  0  0  0  0  0
   -0.7356    0.1651   -4.4431 C   0  0  0  0  0  0  0  0  0  0  0  0
    0.6378    0.6989   -4.7594 C   0  0  0  0  0  0  0  0  0  0  0  0
    0.8590    2.0631   -4.7894 C   0  0  0  0  0  0  0  0  0  0  0  0
    2.1188    2.5528   -5.0795 C   0  0  0  0  0  0  0  0  0  0  0  0
    3.1574    1.6782   -5.3391 C   0  0  0  0  0  0  0  0  0  0  0  0
    2.9363    0.3140   -5.3082 C   0  0  0  0  0  0  0  0  0  0  0  0
    1.6776   -0.1757   -5.0139 C   0  0  0  0  0  0  0  0  0  0  0  0
    4.7628    2.3024   -5.7100 S   0  0  0  0  0  0  0  0  0  0  0  0
    5.4311    1.2900   -6.4501 O   0  0  0  0  0  0  0  0  0  0  0  0
    4.5806    3.6189   -6.2127 O   0  0  0  0  0  0  0  0  0  0  0  0
    5.5737    2.4522   -4.2739 N   0  0  0  0  0  0  0  0  0  0  0  0
    1.0053    1.9052   -0.0017 H   0  0  0  0  0  0  0  0  0  0  0  0
   -0.5435    1.8886   -0.8789 H   0  0  0  0  0  0  0  0  0  0  0  0
   -0.5286    1.8851    0.9010 H   0  0  0  0  0  0  0  0  0  0  0  0
    0.5110   -0.3557   -0.8921 H   0  0  0  0  0  0  0  0  0  0  0  0
    0.5259   -0.3592    0.8878 H   0  0  0  0  0  0  0  0  0  0  0  0
   -1.7271   -0.8297    2.1197 H   0  0  0  0  0  0  0  0  0  0  0  0
   -6.0658   -1.9804   -3.2792 H   0  0  0  0  0  0  0  0  0  0  0  0
   -2.2085   -0.2005  -10.6514 H   0  0  0  0  0  0  0  0  0  0  0  0
   -2.7510    1.4654  -10.3372 H   0  0  0  0  0  0  0  0  0  0  0  0
   -0.1065    0.2510   -9.4159 H   0  0  0  0  0  0  0  0  0  0  0  0
   -0.3102    1.3906  -10.7680 H   0  0  0  0  0  0  0  0  0  0  0  0
   -0.6490    1.9169   -9.1017 H   0  0  0  0  0  0  0  0  0  0  0  0
   -7.4060   -0.2857   -8.3137 H   0  0  0  0  0  0  0  0  0  0  0  0
   -6.3516   -1.4254   -9.1841 H   0  0  0  0  0  0  0  0  0  0  0  0
   -7.5205   -2.0316   -7.9864 H   0  0  0  0  0  0  0  0  0  0  0  0
   -0.1219    0.1912   -2.4107 H   0  0  0  0  0  0  0  0  0  0  0  0
   -0.8794   -0.7899   -4.9484 H   0  0  0  0  0  0  0  0  0  0  0  0
   -1.4889    0.8745   -4.7857 H   0  0  0  0  0  0  0  0  0  0  0  0
    0.0476    2.7464   -4.5866 H   0  0  0  0  0  0  0  0  0  0  0  0
    2.2915    3.6186   -5.1037 H   0  0  0  0  0  0  0  0  0  0  0  0
    3.7477   -0.3692   -5.5113 H   0  0  0  0  0  0  0  0  0  0  0  0
    1.5057   -1.2416   -4.9860 H   0  0  0  0  0  0  0  0  0  0  0  0
    5.1373    2.2080   -3.4427 H   0  0  0  0  0  0  0  0  0  0  0  0
    6.4851    2.7840   -4.2639 H   0  0  0  0  0  0  0  0  0  0  0  0
   -5.2317   -1.8101   -1.1300 H   0  0  0  0  0  0  0  0  0  0  0  0
  1  2  1  0  0  0  0
  1 36  1  0  0  0  0
  1 37  1  0  0  0  0
  1 38  1  0  0  0  0
  2  3  1  0  0  0  0
  2 39  1  0  0  0  0
  2 40  1  0  0  0  0
  3  7  1  0  0  0  0
  3  4  1  0  0  0  0
  4  5  2  0  0  0  0
  4 41  1  0  0  0  0
  5  6  1  0  0  0  0
  6 11  2  0  0  0  0
  6  7  1  0  0  0  0
  7  8  2  0  0  0  0
  8  9  1  0  0  0  0
  8 24  1  0  0  0  0
  9 10  2  0  0  0  0
 10 11  1  0  0  0  0
 10 12  1  0  0  0  0
 11 60  1  0  0  0  0
 12 13  1  0  0  0  0
 12 42  1  0  0  0  0
 13 17  1  0  0  0  0
 13 14  2  0  0  0  0
 14 15  1  0  0  0  0
 15 16  2  0  0  0  0
 15 23  1  0  0  0  0
 16 17  1  0  0  0  0
 16 18  1  0  0  0  0
 18 19  2  0  0  0  0
 18 20  1  0  0  0  0
 20 21  1  0  0  0  0
 21 22  1  0  0  0  0
 21 43  1  0  0  0  0
 21 44  1  0  0  0  0
 22 45  1  0  0  0  0
 22 46  1  0  0  0  0
 22 47  1  0  0  0  0
 23 48  1  0  0  0  0
 23 49  1  0  0  0  0
 23 50  1  0  0  0  0
 24 25  1  0  0  0  0
 24 51  1  0  0  0  0
 25 26  1  0  0  0  0
 25 52  1  0  0  0  0
 25 53  1  0  0  0  0
 26 31  2  0  0  0  0
 26 27  1  0  0  0  0
 27 28  2  0  0  0  0
 27 54  1  0  0  0  0
 28 29  1  0  0  0  0
 28 55  1  0  0  0  0
 29 30  2  0  0  0  0
 29 32  1  0  0  0  0
 30 31  1  0  0  0  0
 30 56  1  0  0  0  0
 31 57  1  0  0  0  0
 32 33  2  0  0  0  0
 32 34  2  0  0  0  0
 32 35  1  0  0  0  0
 35 58  1  0  0  0  0
 35 59  1  0  0  0  0
M  CHG  1  11   1
M  END
$$$$
CHEMBL243362
  -OEChem-07121202283D

 62 63  0     1  0  0  0  0  0999 V2000
   -0.0197    1.4835    0.2229 C   0  0  0  0  0  0  0  0  0  0  0  0
   -0.0009   -0.0200    0.1220 C   0  0  0  0  0  0  0  0  0  0  0  0
    1.1296   -0.6484   -0.0856 C   0  0  0  0  0  0  0  0  0  0  0  0
    2.4266    0.1189   -0.1001 C   0  0  0  0  0  0  0  0  0  0  0  0
    3.3985   -0.5034    0.9044 C   0  0  2  0  0  0  0  0  0  0  0  0
    2.9287   -0.5442    1.8871 H   0  0  0  0  0  0  0  0  0  0  0  0
    4.6675    0.3480    0.9807 C   0  0  0  0  0  0  0  0  0  0  0  0
    5.5721   -0.1941    2.0572 C   0  0  0  0  0  0  0  0  0  0  0  0
    5.4535    0.2709    3.3608 C   0  0  0  0  0  0  0  0  0  0  0  0
    6.2819   -0.2225    4.3602 C   0  0  0  0  0  0  0  0  0  0  0  0
    7.2328   -1.1821    4.0643 C   0  0  0  0  0  0  0  0  0  0  0  0
    7.3592   -1.6574    2.7494 C   0  0  0  0  0  0  0  0  0  0  0  0
    6.5141   -1.1571    1.7458 C   0  0  0  0  0  0  0  0  0  0  0  0
    6.6249   -1.6138    0.4730 O   0  0  0  0  0  0  0  0  0  0  0  0
    8.3689   -2.6784    2.4255 C   0  0  0  0  0  0  0  0  0  0  0  0
    9.4603   -2.3425    1.9996 O   0  0  0  0  0  0  0  0  0  0  0  0
    8.0717   -4.0530    2.6091 C   0  0  0  0  0  0  0  0  0  0  0  0
    9.0319   -4.9849    2.4109 C   0  0  0  0  0  0  0  0  0  0  0  0
    8.7246   -6.4066    2.6007 C   0  0  0  0  0  0  0  0  0  0  0  0
    7.4363   -6.8033    2.9816 C   0  0  0  0  0  0  0  0  0  0  0  0
    7.1525   -8.1271    3.1578 C   0  0  0  0  0  0  0  0  0  0  0  0
    8.1373   -9.0908    2.9606 C   0  0  0  0  0  0  0  0  0  0  0  0
    9.4189   -8.7158    2.5831 C   0  0  0  0  0  0  0  0  0  0  0  0
    9.7200   -7.3780    2.3956 C   0  0  0  0  0  0  0  0  0  0  0  0
   10.9698   -7.0058    2.0211 O   0  0  0  0  0  0  0  0  0  0  0  0
    7.8428  -10.4038    3.1388 O   0  0  0  0  0  0  0  0  0  0  0  0
    8.0416   -1.6626    5.0420 O   0  0  0  0  0  0  0  0  0  0  0  0
    7.8563   -1.1325    6.3561 C   0  0  0  0  0  0  0  0  0  0  0  0
    4.5231    1.2129    3.6593 O   0  0  0  0  0  0  0  0  0  0  0  0
    3.7556   -1.8984    0.4599 C   0  0  0  0  0  0  0  0  0  0  0  0
    3.4871   -2.9211    1.2333 C   0  0  0  0  0  0  0  0  0  0  0  0
    4.4214   -2.1169   -0.8742 C   0  0  0  0  0  0  0  0  0  0  0  0
   -1.2826   -0.8005    0.2600 C   0  0  0  0  0  0  0  0  0  0  0  0
    0.4375    1.9132   -0.6684 H   0  0  0  0  0  0  0  0  0  0  0  0
   -1.0501    1.8293    0.3053 H   0  0  0  0  0  0  0  0  0  0  0  0
    0.5398    1.7955    1.1047 H   0  0  0  0  0  0  0  0  0  0  0  0
    1.1322   -1.7164   -0.2463 H   0  0  0  0  0  0  0  0  0  0  0  0
    2.8612    0.0788   -1.0989 H   0  0  0  0  0  0  0  0  0  0  0  0
    2.2376    1.1571    0.1725 H   0  0  0  0  0  0  0  0  0  0  0  0
    5.1845    0.3164    0.0217 H   0  0  0  0  0  0  0  0  0  0  0  0
    4.4002    1.3783    1.2156 H   0  0  0  0  0  0  0  0  0  0  0  0
    6.1836    0.1445    5.3712 H   0  0  0  0  0  0  0  0  0  0  0  0
    7.2468   -1.1124   -0.0720 H   0  0  0  0  0  0  0  0  0  0  0  0
    7.0788   -4.3557    2.9072 H   0  0  0  0  0  0  0  0  0  0  0  0
   10.0249   -4.6823    2.1128 H   0  0  0  0  0  0  0  0  0  0  0  0
    6.6669   -6.0614    3.1365 H   0  0  0  0  0  0  0  0  0  0  0  0
    6.1580   -8.4284    3.4522 H   0  0  0  0  0  0  0  0  0  0  0  0
   10.1796   -9.4674    2.4320 H   0  0  0  0  0  0  0  0  0  0  0  0
   11.5680   -6.8355    2.7615 H   0  0  0  0  0  0  0  0  0  0  0  0
    7.5253  -10.8475    2.3405 H   0  0  0  0  0  0  0  0  0  0  0  0
    8.5646   -1.6005    7.0398 H   0  0  0  0  0  0  0  0  0  0  0  0
    8.0238   -0.0556    6.3404 H   0  0  0  0  0  0  0  0  0  0  0  0
    6.8392   -1.3372    6.6904 H   0  0  0  0  0  0  0  0  0  0  0  0
    3.6652    0.8501    3.9191 H   0  0  0  0  0  0  0  0  0  0  0  0
    3.0099   -2.7645    2.1894 H   0  0  0  0  0  0  0  0  0  0  0  0
    3.7430   -3.9208    0.9148 H   0  0  0  0  0  0  0  0  0  0  0  0
    4.5630   -1.1571   -1.3712 H   0  0  0  0  0  0  0  0  0  0  0  0
    5.3897   -2.5941   -0.7232 H   0  0  0  0  0  0  0  0  0  0  0  0
    3.7932   -2.7574   -1.4932 H   0  0  0  0  0  0  0  0  0  0  0  0
   -1.7411   -0.9225   -0.7214 H   0  0  0  0  0  0  0  0  0  0  0  0
   -1.0670   -1.7810    0.6847 H   0  0  0  0  0  0  0  0  0  0  0  0
   -1.9667   -0.2627    0.9163 H   0  0  0  0  0  0  0  0  0  0  0  0
  1  2  1  0  0  0  0
  1 34  1  0  0  0  0
  1 35  1  0  0  0  0
  1 36  1  0  0  0  0
  2  3  2  0  0  0  0
  2 33  1  0  0  0  0
  3  4  1  0  0  0  0
  3 37  1  0  0  0  0
  4  5  1  0  0  0  0
  4 38  1  0  0  0  0
  4 39  1  0  0  0  0
  5  6  1  0  0  0  0
  5  7  1  0  0  0  0
  5 30  1  0  0  0  0
  7  8  1  0  0  0  0
  7 40  1  0  0  0  0
  7 41  1  0  0  0  0
  8 13  2  0  0  0  0
  8  9  1  0  0  0  0
  9 10  2  0  0  0  0
  9 29  1  0  0  0  0
 10 11  1  0  0  0  0
 10 42  1  0  0  0  0
 11 12  2  0  0  0  0
 11 27  1  0  0  0  0
 12 13  1  0  0  0  0
 12 15  1  0  0  0  0
 13 14  1  0  0  0  0
 14 43  1  0  0  0  0
 15 16  2  0  0  0  0
 15 17  1  0  0  0  0
 17 18  2  0  0  0  0
 17 44  1  0  0  0  0
 18 19  1  0  0  0  0
 18 45  1  0  0  0  0
 19 24  2  0  0  0  0
 19 20  1  0  0  0  0
 20 21  2  0  0  0  0
 20 46  1  0  0  0  0
 21 22  1  0  0  0  0
 21 47  1  0  0  0  0
 22 23  2  0  0  0  0
 22 26  1  0  0  0  0
 23 24  1  0  0  0  0
 23 48  1  0  0  0  0
 24 25  1  0  0  0  0
 25 49  1  0  0  0  0
 26 50  1  0  0  0  0
 27 28  1  0  0  0  0
 28 51  1  0  0  0  0
 28 52  1  0  0  0  0
 28 53  1  0  0  0  0
 29 54  1  0  0  0  0
 30 31  2  0  0  0  0
 30 32  1  0  0  0  0
 31 55  1  0  0  0  0
 31 56  1  0  0  0  0
 32 57  1  0  0  0  0
 32 58  1  0  0  0  0
 32 59  1  0  0  0  0
 33 60  1  0  0  0  0
 33 61  1  0  0  0  0
 33 62  1  0  0  0  0
M  END
$$$$
CHEMBL349947
  -OEChem-07121202283D

 64 70  0     1  0  0  0  0  0999 V2000
    0.0787    2.7260   -0.8140 C   0  0  0  0  0  0  0  0  0  0  0  0
    0.0796    1.3119   -0.6079 O   0  0  0  0  0  0  0  0  0  0  0  0
    0.6719    0.5489   -1.5650 C   0  0  0  0  0  0  0  0  0  0  0  0
    1.2442    1.1516   -2.6748 C   0  0  0  0  0  0  0  0  0  0  0  0
    1.8463    0.3806   -3.6484 C   0  0  0  0  0  0  0  0  0  0  0  0
    1.8805   -1.0064   -3.5173 C   0  0  0  0  0  0  0  0  0  0  0  0
    1.3060   -1.6132   -2.4021 C   0  0  0  0  0  0  0  0  0  0  0  0
    0.7078   -0.8361   -1.4262 C   0  0  0  0  0  0  0  0  0  0  0  0
    0.1505   -1.4251   -0.3344 O   0  0  0  0  0  0  0  0  0  0  0  0
    0.2240   -2.8501   -0.2576 C   0  0  0  0  0  0  0  0  0  0  0  0
    2.5271   -1.8358   -4.5638 C   0  0  0  0  0  0  0  0  0  0  0  0
    2.5658   -3.2280   -4.4521 C   0  0  0  0  0  0  0  0  0  0  0  0
    3.1504   -3.9322   -5.4052 N   0  0  0  0  0  0  0  0  0  0  0  0
    3.6948   -3.3346   -6.4553 C   0  0  0  0  0  0  0  0  0  0  0  0
    3.6787   -2.0171   -6.5966 N   0  0  0  0  0  0  0  0  0  0  0  0
    3.1078   -1.2449   -5.6889 C   0  0  0  0  0  0  0  0  0  0  0  0
    4.2976   -4.1083   -7.4317 N   0  0  0  0  0  0  0  0  0  0  0  0
    4.3330   -5.5741   -7.3173 C   0  0  0  0  0  0  0  0  0  0  0  0
    3.5164   -6.1826   -8.4637 C   0  0  0  0  0  0  0  0  0  0  0  0
    3.8771   -5.4816   -9.7485 C   0  0  0  0  0  0  0  0  0  0  0  0
    3.6452   -5.9249  -11.1084 C   0  0  0  0  0  0  0  0  0  0  0  0
    3.0518   -7.0727  -11.6428 C   0  0  0  0  0  0  0  0  0  0  0  0
    3.0007   -7.1647  -13.0118 C   0  0  0  0  0  0  0  0  0  0  0  0
    3.5095   -6.1740  -13.8356 C   0  0  0  0  0  0  0  0  0  0  0  0
    4.1020   -5.0282  -13.3338 C   0  0  0  0  0  0  0  0  0  0  0  0
    4.1674   -4.9071  -11.9472 C   0  0  0  0  0  0  0  0  0  0  0  0
    4.6714   -3.9313  -11.1363 N   0  0  0  0  0  0  0  0  0  0  0  0
    5.0905   -3.1120  -11.4429 H   0  0  0  0  0  0  0  0  0  0  0  0
    4.4957   -4.2834   -9.8246 C   0  0  0  0  0  0  0  0  0  0  0  0
    4.9148   -3.4852   -8.6151 C   0  0  2  0  0  0  0  0  0  0  0  0
    6.4158   -3.5128   -8.4838 C   0  0  0  0  0  0  0  0  0  0  0  0
    7.1227   -2.3277   -8.3993 C   0  0  0  0  0  0  0  0  0  0  0  0
    8.4996   -2.3478   -8.2783 C   0  0  0  0  0  0  0  0  0  0  0  0
    9.1748   -3.5570   -8.2418 C   0  0  0  0  0  0  0  0  0  0  0  0
    8.4628   -4.7509   -8.3270 C   0  0  0  0  0  0  0  0  0  0  0  0
    7.0824   -4.7231   -8.4423 C   0  0  0  0  0  0  0  0  0  0  0  0
    9.3455   -5.7904   -8.2692 O   0  0  0  0  0  0  0  0  0  0  0  0
   10.6341   -5.2171   -8.5589 C   0  0  0  0  0  0  0  0  0  0  0  0
   10.5037   -3.8486   -8.1306 O   0  0  0  0  0  0  0  0  0  0  0  0
    1.1060    3.0842   -0.8800 H   0  0  0  0  0  0  0  0  0  0  0  0
   -0.4471    2.9578   -1.7403 H   0  0  0  0  0  0  0  0  0  0  0  0
   -0.4236    3.2146    0.0209 H   0  0  0  0  0  0  0  0  0  0  0  0
    1.2185    2.2264   -2.7778 H   0  0  0  0  0  0  0  0  0  0  0  0
    2.2907    0.8523   -4.5123 H   0  0  0  0  0  0  0  0  0  0  0  0
    1.3307   -2.6879   -2.2981 H   0  0  0  0  0  0  0  0  0  0  0  0
   -0.2569   -3.1897    0.6598 H   0  0  0  0  0  0  0  0  0  0  0  0
   -0.2840   -3.2870   -1.1173 H   0  0  0  0  0  0  0  0  0  0  0  0
    1.2689   -3.1605   -0.2565 H   0  0  0  0  0  0  0  0  0  0  0  0
    2.1244   -3.7215   -3.5988 H   0  0  0  0  0  0  0  0  0  0  0  0
    3.0939   -0.1721   -5.8128 H   0  0  0  0  0  0  0  0  0  0  0  0
    5.3647   -5.9202   -7.3804 H   0  0  0  0  0  0  0  0  0  0  0  0
    3.9029   -5.8762   -6.3624 H   0  0  0  0  0  0  0  0  0  0  0  0
    3.7452   -7.2448   -8.5510 H   0  0  0  0  0  0  0  0  0  0  0  0
    2.4529   -6.0524   -8.2633 H   0  0  0  0  0  0  0  0  0  0  0  0
    2.6527   -7.8505  -11.0086 H   0  0  0  0  0  0  0  0  0  0  0  0
    2.5498   -8.0374  -13.4607 H   0  0  0  0  0  0  0  0  0  0  0  0
    3.4419   -6.3001  -14.9061 H   0  0  0  0  0  0  0  0  0  0  0  0
    4.4956   -4.2633  -13.9868 H   0  0  0  0  0  0  0  0  0  0  0  0
    4.5698   -2.4560   -8.7138 H   0  0  0  0  0  0  0  0  0  0  0  0
    6.5981   -1.3841   -8.4283 H   0  0  0  0  0  0  0  0  0  0  0  0
    9.0493   -1.4205   -8.2125 H   0  0  0  0  0  0  0  0  0  0  0  0
    6.5272   -5.6475   -8.5040 H   0  0  0  0  0  0  0  0  0  0  0  0
   11.4150   -5.7233   -7.9913 H   0  0  0  0  0  0  0  0  0  0  0  0
   10.8434   -5.2656   -9.6276 H   0  0  0  0  0  0  0  0  0  0  0  0
  1  2  1  0  0  0  0
  1 40  1  0  0  0  0
  1 41  1  0  0  0  0
  1 42  1  0  0  0  0
  2  3  1  0  0  0  0
  3  8  2  0  0  0  0
  3  4  1  0  0  0  0
  4  5  2  0  0  0  0
  4 43  1  0  0  0  0
  5  6  1  0  0  0  0
  5 44  1  0  0  0  0
  6  7  2  0  0  0  0
  6 11  1  0  0  0  0
  7  8  1  0  0  0  0
  7 45  1  0  0  0  0
  8  9  1  0  0  0  0
  9 10  1  0  0  0  0
 10 46  1  0  0  0  0
 10 47  1  0  0  0  0
 10 48  1  0  0  0  0
 11 16  2  0  0  0  0
 11 12  1  0  0  0  0
 12 13  2  0  0  0  0
 12 49  1  0  0  0  0
 13 14  1  0  0  0  0
 14 15  2  0  0  0  0
 14 17  1  0  0  0  0
 15 16  1  0  0  0  0
 16 50  1  0  0  0  0
 17 30  1  0  0  0  0
 17 18  1  0  0  0  0
 18 19  1  0  0  0  0
 18 51  1  0  0  0  0
 18 52  1  0  0  0  0
 19 20  1  0  0  0  0
 19 53  1  0  0  0  0
 19 54  1  0  0  0  0
 20 29  2  0  0  0  0
 20 21  1  0  0  0  0
 21 26  2  0  0  0  0
 21 22  1  0  0  0  0
 22 23  2  0  0  0  0
 22 55  1  0  0  0  0
 23 24  1  0  0  0  0
 23 56  1  0  0  0  0
 24 25  2  0  0  0  0
 24 57  1  0  0  0  0
 25 26  1  0  0  0  0
 25 58  1  0  0  0  0
 26 27  1  0  0  0  0
 27 28  1  0  0  0  0
 27 29  1  0  0  0  0
 29 30  1  0  0  0  0
 30 31  1  0  0  0  0
 30 59  1  0  0  0  0
 31 36  2  0  0  0  0
 31 32  1  0  0  0  0
 32 33  2  0  0  0  0
 32 60  1  0  0  0  0
 33 34  1  0  0  0  0
 33 61  1  0  0  0  0
 34 39  1  0  0  0  0
 34 35  2  0  0  0  0
 35 36  1  0  0  0  0
 35 37  1  0  0  0  0
 36 62  1  0  0  0  0
 37 38  1  0  0  0  0
 38 39  1  0  0  0  0
 38 63  1  0  0  0  0
 38 64  1  0  0  0  0
M  END
$$$$
CHEMBL349947
  -OEChem-07121202283D

 64 70  0     1  0  0  0  0  0999 V2000
   -0.0798    1.2738    0.0584 C   0  0  0  0  0  0  0  0  0  0  0  0
   -0.0411   -0.1545    0.0367 O   0  0  0  0  0  0  0  0  0  0  0  0
    0.5706   -0.7394   -1.0276 C   0  0  0  0  0  0  0  0  0  0  0  0
    1.1260    0.0473   -2.0252 C   0  0  0  0  0  0  0  0  0  0  0  0
    1.7477   -0.5426   -3.1070 C   0  0  0  0  0  0  0  0  0  0  0  0
    1.8189   -1.9313   -3.1985 C   0  0  0  0  0  0  0  0  0  0  0  0
    1.2615   -2.7230   -2.1962 C   0  0  0  0  0  0  0  0  0  0  0  0
    0.6435   -2.1274   -1.1112 C   0  0  0  0  0  0  0  0  0  0  0  0
    0.1028   -2.8973   -0.1292 O   0  0  0  0  0  0  0  0  0  0  0  0
    0.2141   -4.3139   -0.2801 C   0  0  0  0  0  0  0  0  0  0  0  0
    2.4867   -2.5660   -4.3614 C   0  0  0  0  0  0  0  0  0  0  0  0
    2.5624   -3.9567   -4.4728 C   0  0  0  0  0  0  0  0  0  0  0  0
    3.1650   -4.4843   -5.5237 N   0  0  0  0  0  0  0  0  0  0  0  0
    3.6927   -3.7129   -6.4633 C   0  0  0  0  0  0  0  0  0  0  0  0
    3.6414   -2.3906   -6.3929 N   0  0  0  0  0  0  0  0  0  0  0  0
    3.0507   -1.7882   -5.3759 C   0  0  0  0  0  0  0  0  0  0  0  0
    4.3152   -4.3050   -7.5483 N   0  0  0  0  0  0  0  0  0  0  0  0
    4.3897   -5.7688   -7.6688 C   0  0  0  0  0  0  0  0  0  0  0  0
    5.8599   -6.1995   -7.6026 C   0  0  0  0  0  0  0  0  0  0  0  0
    6.6768   -5.2916   -8.4861 C   0  0  0  0  0  0  0  0  0  0  0  0
    8.0085   -5.5126   -9.0131 C   0  0  0  0  0  0  0  0  0  0  0  0
    8.9140   -6.5705   -8.8869 C   0  0  0  0  0  0  0  0  0  0  0  0
   10.1153   -6.4400   -9.5391 C   0  0  0  0  0  0  0  0  0  0  0  0
   10.4272   -5.3183  -10.2897 C   0  0  0  0  0  0  0  0  0  0  0  0
    9.5501   -4.2571  -10.4316 C   0  0  0  0  0  0  0  0  0  0  0  0
    8.3228   -4.3614   -9.7800 C   0  0  0  0  0  0  0  0  0  0  0  0
    7.2499   -3.5203   -9.7086 N   0  0  0  0  0  0  0  0  0  0  0  0
    7.1903   -2.6538  -10.1404 H   0  0  0  0  0  0  0  0  0  0  0  0
    6.2705   -4.0845   -8.9354 C   0  0  0  0  0  0  0  0  0  0  0  0
    4.9148   -3.4852   -8.6151 C   0  0  1  0  0  0  0  0  0  0  0  0
    4.0354   -3.5145   -9.8385 C   0  0  0  0  0  0  0  0  0  0  0  0
    3.4412   -2.3503  -10.2889 C   0  0  0  0  0  0  0  0  0  0  0  0
    2.6341   -2.3720  -11.4110 C   0  0  0  0  0  0  0  0  0  0  0  0
    2.4183   -3.5619  -12.0870 C   0  0  0  0  0  0  0  0  0  0  0  0
    3.0167   -4.7347  -11.6332 C   0  0  0  0  0  0  0  0  0  0  0  0
    3.8291   -4.7044  -10.5113 C   0  0  0  0  0  0  0  0  0  0  0  0
    2.6532   -5.7582  -12.4600 O   0  0  0  0  0  0  0  0  0  0  0  0
    1.5028   -5.2794  -13.1816 C   0  0  0  0  0  0  0  0  0  0  0  0
    1.6799   -3.8505  -13.1982 O   0  0  0  0  0  0  0  0  0  0  0  0
    0.9376    1.6649    0.0541 H   0  0  0  0  0  0  0  0  0  0  0  0
   -0.6122    1.6363   -0.8210 H   0  0  0  0  0  0  0  0  0  0  0  0
   -0.5943    1.6097    0.9587 H   0  0  0  0  0  0  0  0  0  0  0  0
    1.0716    1.1237   -1.9557 H   0  0  0  0  0  0  0  0  0  0  0  0
    2.1790    0.0723   -3.8831 H   0  0  0  0  0  0  0  0  0  0  0  0
    1.3149   -3.7995   -2.2647 H   0  0  0  0  0  0  0  0  0  0  0  0
   -0.2569   -4.8080    0.5697 H   0  0  0  0  0  0  0  0  0  0  0  0
   -0.2826   -4.6215   -1.2003 H   0  0  0  0  0  0  0  0  0  0  0  0
    1.2669   -4.5929   -0.3247 H   0  0  0  0  0  0  0  0  0  0  0  0
    2.1349   -4.5914   -3.7106 H   0  0  0  0  0  0  0  0  0  0  0  0
    3.0082   -0.7101   -5.3274 H   0  0  0  0  0  0  0  0  0  0  0  0
    3.8369   -6.2309   -6.8509 H   0  0  0  0  0  0  0  0  0  0  0  0
    3.9612   -6.0788   -8.6219 H   0  0  0  0  0  0  0  0  0  0  0  0
    6.2158   -6.1255   -6.5750 H   0  0  0  0  0  0  0  0  0  0  0  0
    5.9547   -7.2283   -7.9498 H   0  0  0  0  0  0  0  0  0  0  0  0
    8.6798   -7.4487   -8.3036 H   0  0  0  0  0  0  0  0  0  0  0  0
   10.8401   -7.2371   -9.4641 H   0  0  0  0  0  0  0  0  0  0  0  0
   11.3877   -5.2703  -10.7813 H   0  0  0  0  0  0  0  0  0  0  0  0
    9.8050   -3.3883  -11.0203 H   0  0  0  0  0  0  0  0  0  0  0  0
    5.0355   -2.4586   -8.2694 H   0  0  0  0  0  0  0  0  0  0  0  0
    3.6078   -1.4219   -9.7629 H   0  0  0  0  0  0  0  0  0  0  0  0
    2.1713   -1.4610  -11.7607 H   0  0  0  0  0  0  0  0  0  0  0  0
    4.2980   -5.6115  -10.1597 H   0  0  0  0  0  0  0  0  0  0  0  0
    1.4950   -5.6762  -14.1968 H   0  0  0  0  0  0  0  0  0  0  0  0
    0.5844   -5.5454  -12.6582 H   0  0  0  0  0  0  0  0  0  0  0  0
  1  2  1  0  0  0  0
  1 40  1  0  0  0  0
  1 41  1  0  0  0  0
  1 42  1  0  0  0  0
  2  3  1  0  0  0  0
  3  8  2  0  0  0  0
  3  4  1  0  0  0  0
  4  5  2  0  0  0  0
  4 43  1  0  0  0  0
  5  6  1  0  0  0  0
  5 44  1  0  0  0  0
  6  7  2  0  0  0  0
  6 11  1  0  0  0  0
  7  8  1  0  0  0  0
  7 45  1  0  0  0  0
  8  9  1  0  0  0  0
  9 10  1  0  0  0  0
 10 46  1  0  0  0  0
 10 47  1  0  0  0  0
 10 48  1  0  0  0  0
 11 16  2  0  0  0  0
 11 12  1  0  0  0  0
 12 13  2  0  0  0  0
 12 49  1  0  0  0  0
 13 14  1  0  0  0  0
 14 15  2  0  0  0  0
 14 17  1  0  0  0  0
 15 16  1  0  0  0  0
 16 50  1  0  0  0  0
 17 30  1  0  0  0  0
 17 18  1  0  0  0  0
 18 19  1  0  0  0  0
 18 51  1  0  0  0  0
 18 52  1  0  0  0  0
 19 20  1  0  0  0  0
 19 53  1  0  0  0  0
 19 54  1  0  0  0  0
 20 29  2  0  0  0  0
 20 21  1  0  0  0  0
 21 26  2  0  0  0  0
 21 22  1  0  0  0  0
 22 23  2  0  0  0  0
 22 55  1  0  0  0  0
 23 24  1  0  0  0  0
 23 56  1  0  0  0  0
 24 25  2  0  0  0  0
 24 57  1  0  0  0  0
 25 26  1  0  0  0  0
 25 58  1  0  0  0  0
 26 27  1  0  0  0  0
 27 28  1  0  0  0  0
 27 29  1  0  0  0  0
 29 30  1  0  0  0  0
 30 31  1  0  0  0  0
 30 59  1  0  0  0  0
 31 36  2  0  0  0  0
 31 32  1  0  0  0  0
 32 33  2  0  0  0  0
 32 60  1  0  0  0  0
 33 34  1  0  0  0  0
 33 61  1  0  0  0  0
 34 39  1  0  0  0  0
 34 35  2  0  0  0  0
 35 36  1  0  0  0  0
 35 37  1  0  0  0  0
 36 62  1  0  0  0  0
 37 38  1  0  0  0  0
 38 39  1  0  0  0  0
 38 63  1  0  0  0  0
 38 64  1  0  0  0  0
M  END
$$$$
CHEMBL227489
  -OEChem-07121202283D

 76 81  0     0  0  0  0  0  0999 V2000
   -0.0187    1.5258    0.0104 C   0  0  0  0  0  0  0  0  0  0  0  0
    0.0021   -0.0041    0.0020 C   0  0  0  0  0  0  0  0  0  0  0  0
   -1.4333   -0.5336    0.0129 C   0  0  0  0  0  0  0  0  0  0  0  0
   -1.4139   -1.9625    0.0050 O   0  0  0  0  0  0  0  0  0  0  0  0
   -2.6147   -2.5951    0.0131 C   0  0  0  0  0  0  0  0  0  0  0  0
   -3.7894   -1.8588    0.0225 C   0  0  0  0  0  0  0  0  0  0  0  0
   -5.0107   -2.5038    0.0302 C   0  0  0  0  0  0  0  0  0  0  0  0
   -5.0722   -3.8874    0.0291 C   0  0  0  0  0  0  0  0  0  0  0  0
   -3.9138   -4.6347    0.0203 C   0  0  0  0  0  0  0  0  0  0  0  0
   -2.6726   -3.9949    0.0061 C   0  0  0  0  0  0  0  0  0  0  0  0
   -1.4285   -4.7890   -0.0095 C   0  0  0  0  0  0  0  0  0  0  0  0
   -0.2843   -4.1552   -0.0112 N   0  0  0  0  0  0  0  0  0  0  0  0
    0.8969   -4.8215   -0.0252 C   0  0  0  0  0  0  0  0  0  0  0  0
    2.1084   -4.1388   -0.0265 C   0  0  0  0  0  0  0  0  0  0  0  0
    3.3037   -4.8556   -0.0406 C   0  0  0  0  0  0  0  0  0  0  0  0
    3.2840   -6.2664   -0.0536 C   0  0  0  0  0  0  0  0  0  0  0  0
    2.0833   -6.9510   -0.0518 C   0  0  0  0  0  0  0  0  0  0  0  0
    0.8878   -6.2395   -0.0383 C   0  0  0  0  0  0  0  0  0  0  0  0
   -0.4131   -6.9240   -0.0360 C   0  0  0  0  0  0  0  0  0  0  0  0
   -1.5261   -6.1553   -0.0159 N   0  0  0  0  0  0  0  0  0  0  0  0
   -0.4862   -8.1391   -0.0471 O   0  0  0  0  0  0  0  0  0  0  0  0
    4.6098   -6.6639   -0.0664 N   0  0  0  0  0  0  0  0  0  0  0  0
    5.3693   -5.5369   -0.0611 C   0  0  0  0  0  0  0  0  0  0  0  0
    4.6088   -4.4809   -0.0461 N   0  0  0  0  0  0  0  0  0  0  0  0
    5.1028   -8.0433   -0.0821 C   0  0  0  0  0  0  0  0  0  0  0  0
    5.1454   -8.5453   -1.5024 C   0  0  0  0  0  0  0  0  0  0  0  0
    4.0407   -9.1729   -2.0471 C   0  0  0  0  0  0  0  0  0  0  0  0
    4.0798   -9.6334   -3.3499 C   0  0  0  0  0  0  0  0  0  0  0  0
    5.2234   -9.4659   -4.1082 C   0  0  0  0  0  0  0  0  0  0  0  0
    6.3278   -8.8375   -3.5638 C   0  0  0  0  0  0  0  0  0  0  0  0
    6.2873   -8.3732   -2.2624 C   0  0  0  0  0  0  0  0  0  0  0  0
   -6.6376   -4.6960    0.0396 S   0  0  0  0  0  0  0  0  0  0  0  0
   -6.4230   -5.9894    0.5875 O   0  0  0  0  0  0  0  0  0  0  0  0
   -7.5659   -3.7765    0.5982 O   0  0  0  0  0  0  0  0  0  0  0  0
   -7.0842   -4.9189   -1.5394 N   0  0  0  0  0  0  0  0  0  0  0  0
   -7.8618   -3.8963   -2.2556 C   0  0  0  0  0  0  0  0  0  0  0  0
   -7.1564   -3.5877   -3.5805 C   0  0  0  0  0  0  0  0  0  0  0  0
   -6.9438   -4.8383   -4.3213 N   0  0  0  0  0  0  0  0  0  0  0  0
   -6.0535   -5.7476   -3.5874 C   0  0  0  0  0  0  0  0  0  0  0  0
   -6.7085   -6.1421   -2.2647 C   0  0  0  0  0  0  0  0  0  0  0  0
   -6.4267   -4.5699   -5.6698 C   0  0  0  0  0  0  0  0  0  0  0  0
   -6.4533   -5.8598   -6.4923 C   0  0  0  0  0  0  0  0  0  0  0  0
    1.0039    1.9031    0.0027 H   0  0  0  0  0  0  0  0  0  0  0  0
   -0.5459    1.8868   -0.8726 H   0  0  0  0  0  0  0  0  0  0  0  0
   -0.5289    1.8773    0.9072 H   0  0  0  0  0  0  0  0  0  0  0  0
    0.5123   -0.3556   -0.8948 H   0  0  0  0  0  0  0  0  0  0  0  0
    0.5293   -0.3651    0.8851 H   0  0  0  0  0  0  0  0  0  0  0  0
   -1.9435   -0.1821    0.9097 H   0  0  0  0  0  0  0  0  0  0  0  0
   -1.9605   -0.1726   -0.8702 H   0  0  0  0  0  0  0  0  0  0  0  0
   -3.7494   -0.7796    0.0241 H   0  0  0  0  0  0  0  0  0  0  0  0
   -5.9231   -1.9258    0.0375 H   0  0  0  0  0  0  0  0  0  0  0  0
   -3.9662   -5.7134    0.0198 H   0  0  0  0  0  0  0  0  0  0  0  0
    2.1230   -3.0589   -0.0169 H   0  0  0  0  0  0  0  0  0  0  0  0
    2.0732   -8.0309   -0.0621 H   0  0  0  0  0  0  0  0  0  0  0  0
    6.4491   -5.5200   -0.0677 H   0  0  0  0  0  0  0  0  0  0  0  0
    6.1051   -8.0759    0.3449 H   0  0  0  0  0  0  0  0  0  0  0  0
    4.4365   -8.6741    0.5063 H   0  0  0  0  0  0  0  0  0  0  0  0
    3.1472   -9.3037   -1.4547 H   0  0  0  0  0  0  0  0  0  0  0  0
    3.2170  -10.1243   -3.7753 H   0  0  0  0  0  0  0  0  0  0  0  0
    5.2542   -9.8263   -5.1258 H   0  0  0  0  0  0  0  0  0  0  0  0
    7.2214   -8.7070   -4.1561 H   0  0  0  0  0  0  0  0  0  0  0  0
    7.1488   -7.8790   -1.8382 H   0  0  0  0  0  0  0  0  0  0  0  0
   -8.8656   -4.2720   -2.4540 H   0  0  0  0  0  0  0  0  0  0  0  0
   -7.9194   -2.9907   -1.6518 H   0  0  0  0  0  0  0  0  0  0  0  0
   -7.7750   -2.9142   -4.1736 H   0  0  0  0  0  0  0  0  0  0  0  0
   -6.1945   -3.1162   -3.3792 H   0  0  0  0  0  0  0  0  0  0  0  0
   -5.8723   -6.6406   -4.1856 H   0  0  0  0  0  0  0  0  0  0  0  0
   -5.1070   -5.2460   -3.3860 H   0  0  0  0  0  0  0  0  0  0  0  0
   -6.0041   -6.7204   -1.6669 H   0  0  0  0  0  0  0  0  0  0  0  0
   -7.5993   -6.7378   -2.4640 H   0  0  0  0  0  0  0  0  0  0  0  0
   -7.0486   -3.8172   -6.1543 H   0  0  0  0  0  0  0  0  0  0  0  0
   -5.4021   -4.2046   -5.6000 H   0  0  0  0  0  0  0  0  0  0  0  0
   -5.8314   -6.6125   -6.0078 H   0  0  0  0  0  0  0  0  0  0  0  0
   -7.4779   -6.2252   -6.5620 H   0  0  0  0  0  0  0  0  0  0  0  0
   -6.0696   -5.6607   -7.4929 H   0  0  0  0  0  0  0  0  0  0  0  0
   -2.4005   -6.5750   -0.0098 H   0  0  0  0  0  0  0  0  0  0  0  0
  1  2  1  0  0  0  0
  1 43  1  0  0  0  0
  1 44  1  0  0  0  0
  1 45  1  0  0  0  0
  2  3  1  0  0  0  0
  2 46  1  0  0  0  0
  2 47  1  0  0  0  0
  3  4  1  0  0  0  0
  3 48  1  0  0  0  0
  3 49  1  0  0  0  0
  4  5  1  0  0  0  0
  5 10  2  0  0  0  0
  5  6  1  0  0  0  0
  6  7  2  0  0  0  0
  6 50  1  0  0  0  0
  7  8  1  0  0  0  0
  7 51  1  0  0  0  0
  8  9  2  0  0  0  0
  8 32  1  0  0  0  0
  9 10  1  0  0  0  0
  9 52  1  0  0  0  0
 10 11  1  0  0  0  0
 11 20  1  0  0  0  0
 11 12  2  0  0  0  0
 12 13  1  0  0  0  0
 13 18  2  0  0  0  0
 13 14  1  0  0  0  0
 14 15  2  0  0  0  0
 14 53  1  0  0  0  0
 15 24  1  0  0  0  0
 15 16  1  0  0  0  0
 16 17  2  0  0  0  0
 16 22  1  0  0  0  0
 17 18  1  0  0  0  0
 17 54  1  0  0  0  0
 18 19  1  0  0  0  0
 19 20  1  0  0  0  0
 19 21  2  0  0  0  0
 20 76  1  0  0  0  0
 22 23  1  0  0  0  0
 22 25  1  0  0  0  0
 23 24  2  0  0  0  0
 23 55  1  0  0  0  0
 25 26  1  0  0  0  0
 25 56  1  0  0  0  0
 25 57  1  0  0  0  0
 26 31  2  0  0  0  0
 26 27  1  0  0  0  0
 27 28  2  0  0  0  0
 27 58  1  0  0  0  0
 28 29  1  0  0  0  0
 28 59  1  0  0  0  0
 29 30  2  0  0  0  0
 29 60  1  0  0  0  0
 30 31  1  0  0  0  0
 30 61  1  0  0  0  0
 31 62  1  0  0  0  0
 32 33  2  0  0  0  0
 32 34  2  0  0  0  0
 32 35  1  0  0  0  0
 35 40  1  0  0  0  0
 35 36  1  0  0  0  0
 36 37  1  0  0  0  0
 36 63  1  0  0  0  0
 36 64  1  0  0  0  0
 37 38  1  0  0  0  0
 37 65  1  0  0  0  0
 37 66  1  0  0  0  0
 38 39  1  0  0  0  0
 38 41  1  0  0  0  0
 39 40  1  0  0  0  0
 39 67  1  0  0  0  0
 39 68  1  0  0  0  0
 40 69  1  0  0  0  0
 40 70  1  0  0  0  0
 41 42  1  0  0  0  0
 41 71  1  0  0  0  0
 41 72  1  0  0  0  0
 42 73  1  0  0  0  0
 42 74  1  0  0  0  0
 42 75  1  0  0  0  0
M  END
$$$$
CHEMBL227489
  -OEChem-07121202283D

 75 80  0     0  0  0  0  0  0999 V2000
   -0.0187    1.5258    0.0104 C   0  0  0  0  0  0  0  0  0  0  0  0
    0.0021   -0.0041    0.0020 C   0  0  0  0  0  0  0  0  0  0  0  0
   -1.4333   -0.5336    0.0129 C   0  0  0  0  0  0  0  0  0  0  0  0
   -1.4139   -1.9625    0.0050 O   0  0  0  0  0  0  0  0  0  0  0  0
   -2.6151   -2.5953    0.0131 C   0  0  0  0  0  0  0  0  0  0  0  0
   -3.7896   -1.8588    0.0225 C   0  0  0  0  0  0  0  0  0  0  0  0
   -5.0110   -2.5038    0.0302 C   0  0  0  0  0  0  0  0  0  0  0  0
   -5.0712   -3.8870    0.0286 C   0  0  0  0  0  0  0  0  0  0  0  0
   -3.9112   -4.6331    0.0194 C   0  0  0  0  0  0  0  0  0  0  0  0
   -2.6726   -3.9931    0.0061 C   0  0  0  0  0  0  0  0  0  0  0  0
   -1.4236   -4.7892   -0.0100 C   0  0  0  0  0  0  0  0  0  0  0  0
   -1.5129   -6.1054   -0.0217 N   0  0  0  0  0  0  0  0  0  0  0  0
   -0.4033   -6.8615   -0.0370 C   0  0  0  0  0  0  0  0  0  0  0  0
   -0.4716   -8.2553   -0.0500 C   0  0  0  0  0  0  0  0  0  0  0  0
    0.7019   -8.9993   -0.0660 C   0  0  0  0  0  0  0  0  0  0  0  0
    1.9573   -8.3491   -0.0692 C   0  0  0  0  0  0  0  0  0  0  0  0
    2.0359   -6.9734   -0.0564 C   0  0  0  0  0  0  0  0  0  0  0  0
    0.8622   -6.2157   -0.0402 C   0  0  0  0  0  0  0  0  0  0  0  0
    0.8927   -4.7999   -0.0272 C   0  0  0  0  0  0  0  0  0  0  0  0
   -0.2558   -4.1458   -0.0177 N   0  0  0  0  0  0  0  0  0  0  0  0
    2.0696   -4.1325   -0.0292 O   0  5  0  0  0  0  0  0  0  0  0  0
    2.9056   -9.3587   -0.0861 N   0  0  0  0  0  0  0  0  0  0  0  0
    2.2360  -10.5423   -0.0926 C   0  0  0  0  0  0  0  0  0  0  0  0
    0.9518  -10.3352   -0.0809 N   0  0  0  0  0  0  0  0  0  0  0  0
    4.3601   -9.1837   -0.0960 C   0  0  0  0  0  0  0  0  0  0  0  0
    4.8553   -9.0140    1.3171 C   0  0  0  0  0  0  0  0  0  0  0  0
    4.9339   -7.7517    1.8750 C   0  0  0  0  0  0  0  0  0  0  0  0
    5.3882   -7.5959    3.1713 C   0  0  0  0  0  0  0  0  0  0  0  0
    5.7633   -8.7026    3.9098 C   0  0  0  0  0  0  0  0  0  0  0  0
    5.6838   -9.9650    3.3523 C   0  0  0  0  0  0  0  0  0  0  0  0
    5.2255  -10.1211    2.0575 C   0  0  0  0  0  0  0  0  0  0  0  0
   -6.6358   -4.6973    0.0391 S   0  0  0  0  0  0  0  0  0  0  0  0
   -6.4196   -5.9907    0.5865 O   0  0  0  0  0  0  0  0  0  0  0  0
   -7.5650   -3.7790    0.5983 O   0  0  0  0  0  0  0  0  0  0  0  0
   -7.0824   -4.9202   -1.5399 N   0  0  0  0  0  0  0  0  0  0  0  0
   -7.8612   -3.8982   -2.2555 C   0  0  0  0  0  0  0  0  0  0  0  0
   -7.1564   -3.5884   -3.5805 C   0  0  0  0  0  0  0  0  0  0  0  0
   -6.9426   -4.8384   -4.3217 N   0  0  0  0  0  0  0  0  0  0  0  0
   -6.0512   -5.7470   -3.5884 C   0  0  0  0  0  0  0  0  0  0  0  0
   -6.7055   -6.1427   -2.2656 C   0  0  0  0  0  0  0  0  0  0  0  0
   -6.4260   -4.5690   -5.6703 C   0  0  0  0  0  0  0  0  0  0  0  0
   -6.4513   -5.8587   -6.4932 C   0  0  0  0  0  0  0  0  0  0  0  0
    1.0039    1.9031    0.0027 H   0  0  0  0  0  0  0  0  0  0  0  0
   -0.5459    1.8868   -0.8726 H   0  0  0  0  0  0  0  0  0  0  0  0
   -0.5289    1.8773    0.9072 H   0  0  0  0  0  0  0  0  0  0  0  0
    0.5123   -0.3556   -0.8948 H   0  0  0  0  0  0  0  0  0  0  0  0
    0.5293   -0.3651    0.8851 H   0  0  0  0  0  0  0  0  0  0  0  0
   -1.9435   -0.1821    0.9097 H   0  0  0  0  0  0  0  0  0  0  0  0
   -1.9605   -0.1726   -0.8702 H   0  0  0  0  0  0  0  0  0  0  0  0
   -3.7496   -0.7795    0.0241 H   0  0  0  0  0  0  0  0  0  0  0  0
   -5.9236   -1.9263    0.0378 H   0  0  0  0  0  0  0  0  0  0  0  0
   -3.9624   -5.7119    0.0185 H   0  0  0  0  0  0  0  0  0  0  0  0
   -1.4303   -8.7526   -0.0472 H   0  0  0  0  0  0  0  0  0  0  0  0
    2.9987   -6.4840   -0.0592 H   0  0  0  0  0  0  0  0  0  0  0  0
    2.7038  -11.5156   -0.1061 H   0  0  0  0  0  0  0  0  0  0  0  0
    4.8285  -10.0610   -0.5422 H   0  0  0  0  0  0  0  0  0  0  0  0
    4.6157   -8.2991   -0.6793 H   0  0  0  0  0  0  0  0  0  0  0  0
    4.6408   -6.8870    1.2980 H   0  0  0  0  0  0  0  0  0  0  0  0
    5.4503   -6.6096    3.6069 H   0  0  0  0  0  0  0  0  0  0  0  0
    6.1189   -8.5809    4.9223 H   0  0  0  0  0  0  0  0  0  0  0  0
    5.9773  -10.8296    3.9292 H   0  0  0  0  0  0  0  0  0  0  0  0
    5.1599  -11.1077    1.6231 H   0  0  0  0  0  0  0  0  0  0  0  0
   -8.8647   -4.2749   -2.4539 H   0  0  0  0  0  0  0  0  0  0  0  0
   -7.9198   -2.9928   -1.6514 H   0  0  0  0  0  0  0  0  0  0  0  0
   -7.7759   -2.9154   -4.1733 H   0  0  0  0  0  0  0  0  0  0  0  0
   -6.1950   -3.1158   -3.3792 H   0  0  0  0  0  0  0  0  0  0  0  0
   -5.8691   -6.6396   -4.1869 H   0  0  0  0  0  0  0  0  0  0  0  0
   -5.1052   -5.2444   -3.3870 H   0  0  0  0  0  0  0  0  0  0  0  0
   -6.0003   -6.7205   -1.6682 H   0  0  0  0  0  0  0  0  0  0  0  0
   -7.5957   -6.7393   -2.4650 H   0  0  0  0  0  0  0  0  0  0  0  0
   -7.0489   -3.8168   -6.1544 H   0  0  0  0  0  0  0  0  0  0  0  0
   -5.4018   -4.2026   -5.6006 H   0  0  0  0  0  0  0  0  0  0  0  0
   -6.0681   -5.6588   -7.4938 H   0  0  0  0  0  0  0  0  0  0  0  0
   -5.8285   -6.6108   -6.0091 H   0  0  0  0  0  0  0  0  0  0  0  0
   -7.4755   -6.2251   -6.5629 H   0  0  0  0  0  0  0  0  0  0  0  0
  1  2  1  0  0  0  0
  1 43  1  0  0  0  0
  1 44  1  0  0  0  0
  1 45  1  0  0  0  0
  2  3  1  0  0  0  0
  2 46  1  0  0  0  0
  2 47  1  0  0  0  0
  3  4  1  0  0  0  0
  3 48  1  0  0  0  0
  3 49  1  0  0  0  0
  4  5  1  0  0  0  0
  5 10  2  0  0  0  0
  5  6  1  0  0  0  0
  6  7  2  0  0  0  0
  6 50  1  0  0  0  0
  7  8  1  0  0  0  0
  7 51  1  0  0  0  0
  8  9  2  0  0  0  0
  8 32  1  0  0  0  0
  9 10  1  0  0  0  0
  9 52  1  0  0  0  0
 10 11  1  0  0  0  0
 11 20  2  0  0  0  0
 11 12  1  0  0  0  0
 12 13  2  0  0  0  0
 13 18  1  0  0  0  0
 13 14  1  0  0  0  0
 14 15  2  0  0  0  0
 14 53  1  0  0  0  0
 15 24  1  0  0  0  0
 15 16  1  0  0  0  0
 16 17  2  0  0  0  0
 16 22  1  0  0  0  0
 17 18  1  0  0  0  0
 17 54  1  0  0  0  0
 18 19  2  0  0  0  0
 19 20  1  0  0  0  0
 19 21  1  0  0  0  0
 22 23  1  0  0  0  0
 22 25  1  0  0  0  0
 23 24  2  0  0  0  0
 23 55  1  0  0  0  0
 25 26  1  0  0  0  0
 25 56  1  0  0  0  0
 25 57  1  0  0  0  0
 26 31  2  0  0  0  0
 26 27  1  0  0  0  0
 27 28  2  0  0  0  0
 27 58  1  0  0  0  0
 28 29  1  0  0  0  0
 28 59  1  0  0  0  0
 29 30  2  0  0  0  0
 29 60  1  0  0  0  0
 30 31  1  0  0  0  0
 30 61  1  0  0  0  0
 31 62  1  0  0  0  0
 32 33  2  0  0  0  0
 32 34  2  0  0  0  0
 32 35  1  0  0  0  0
 35 40  1  0  0  0  0
 35 36  1  0  0  0  0
 36 37  1  0  0  0  0
 36 63  1  0  0  0  0
 36 64  1  0  0  0  0
 37 38  1  0  0  0  0
 37 65  1  0  0  0  0
 37 66  1  0  0  0  0
 38 39  1  0  0  0  0
 38 41  1  0  0  0  0
 39 40  1  0  0  0  0
 39 67  1  0  0  0  0
 39 68  1  0  0  0  0
 40 69  1  0  0  0  0
 40 70  1  0  0  0  0
 41 42  1  0  0  0  0
 41 71  1  0  0  0  0
 41 72  1  0  0  0  0
 42 73  1  0  0  0  0
 42 74  1  0  0  0  0
 42 75  1  0  0  0  0
M  CHG  1  21  -1
M  END
$$$$
CHEMBL227489
  -OEChem-07121202283D

 76 81  0     0  0  0  0  0  0999 V2000
   -0.0187    1.5258    0.0104 C   0  0  0  0  0  0  0  0  0  0  0  0
    0.0021   -0.0041    0.0020 C   0  0  0  0  0  0  0  0  0  0  0  0
    0.7421   -0.5109    1.2415 C   0  0  0  0  0  0  0  0  0  0  0  0
    0.7614   -1.9398    1.2337 O   0  0  0  0  0  0  0  0  0  0  0  0
    1.3841   -2.5530    2.2714 C   0  0  0  0  0  0  0  0  0  0  0  0
    1.9610   -1.7985    3.2818 C   0  0  0  0  0  0  0  0  0  0  0  0
    2.5949   -2.4239    4.3371 C   0  0  0  0  0  0  0  0  0  0  0  0
    2.6596   -3.8067    4.3960 C   0  0  0  0  0  0  0  0  0  0  0  0
    2.0920   -4.5723    3.4010 C   0  0  0  0  0  0  0  0  0  0  0  0
    1.4423   -3.9526    2.3301 C   0  0  0  0  0  0  0  0  0  0  0  0
    0.8269   -4.7656    1.2652 C   0  0  0  0  0  0  0  0  0  0  0  0
    0.8990   -6.1211    1.3596 N   0  0  0  0  0  0  0  0  0  0  0  0
    0.3335   -6.9212    0.3793 C   0  0  0  0  0  0  0  0  0  0  0  0
    0.3923   -8.2985    0.4505 C   0  0  0  0  0  0  0  0  0  0  0  0
   -0.1910   -9.0674   -0.5587 C   0  0  0  0  0  0  0  0  0  0  0  0
   -0.8353   -8.4370   -1.6427 C   0  0  0  0  0  0  0  0  0  0  0  0
   -0.8954   -7.0578   -1.7140 C   0  0  0  0  0  0  0  0  0  0  0  0
   -0.3126   -6.2948   -0.7078 C   0  0  0  0  0  0  0  0  0  0  0  0
   -0.3484   -4.8212   -0.7370 C   0  0  0  0  0  0  0  0  0  0  0  0
    0.2285   -4.1473    0.2698 N   0  0  0  0  0  0  0  0  0  0  0  0
   -0.8933   -4.2284   -1.6530 O   0  0  0  0  0  0  0  0  0  0  0  0
   -1.2986   -9.4579   -2.4543 N   0  0  0  0  0  0  0  0  0  0  0  0
   -0.9407  -10.6317   -1.8702 C   0  0  0  0  0  0  0  0  0  0  0  0
   -0.2941  -10.4050   -0.7635 N   0  0  0  0  0  0  0  0  0  0  0  0
   -2.0374   -9.3021   -3.7098 C   0  0  0  0  0  0  0  0  0  0  0  0
   -1.0646   -9.1099   -4.8446 C   0  0  0  0  0  0  0  0  0  0  0  0
   -0.6512   -7.8375   -5.1926 C   0  0  0  0  0  0  0  0  0  0  0  0
    0.2411   -7.6612   -6.2335 C   0  0  0  0  0  0  0  0  0  0  0  0
    0.7203   -8.7573   -6.9262 C   0  0  0  0  0  0  0  0  0  0  0  0
    0.3076  -10.0297   -6.5776 C   0  0  0  0  0  0  0  0  0  0  0  0
   -0.5814  -10.2063   -5.5339 C   0  0  0  0  0  0  0  0  0  0  0  0
    3.4721   -4.5897    5.7494 S   0  0  0  0  0  0  0  0  0  0  0  0
    3.8717   -5.8752    5.2944 O   0  0  0  0  0  0  0  0  0  0  0  0
    4.3966   -3.6444    6.2700 O   0  0  0  0  0  0  0  0  0  0  0  0
    2.3343   -4.8369    6.9269 N   0  0  0  0  0  0  0  0  0  0  0  0
    2.0773   -3.8165    7.9545 C   0  0  0  0  0  0  0  0  0  0  0  0
    0.5699   -3.5457    8.0054 C   0  0  0  0  0  0  0  0  0  0  0  0
   -0.1460   -4.8141    8.1969 N   0  0  0  0  0  0  0  0  0  0  0  0
    0.0671   -5.7228    7.0625 C   0  0  0  0  0  0  0  0  0  0  0  0
    1.5496   -6.0802    6.9693 C   0  0  0  0  0  0  0  0  0  0  0  0
   -1.5787   -4.5811    8.4228 C   0  0  0  0  0  0  0  0  0  0  0  0
   -2.2446   -5.8865    8.8624 C   0  0  0  0  0  0  0  0  0  0  0  0
    1.0039    1.9031    0.0027 H   0  0  0  0  0  0  0  0  0  0  0  0
   -0.5459    1.8868   -0.8726 H   0  0  0  0  0  0  0  0  0  0  0  0
   -0.5289    1.8773    0.9072 H   0  0  0  0  0  0  0  0  0  0  0  0
   -1.0205   -0.3814    0.0098 H   0  0  0  0  0  0  0  0  0  0  0  0
    0.5123   -0.3556   -0.8948 H   0  0  0  0  0  0  0  0  0  0  0  0
    1.7647   -0.1336    1.2338 H   0  0  0  0  0  0  0  0  0  0  0  0
    0.2319   -0.1594    2.1383 H   0  0  0  0  0  0  0  0  0  0  0  0
    1.9148   -0.7202    3.2431 H   0  0  0  0  0  0  0  0  0  0  0  0
    3.0432   -1.8317    5.1211 H   0  0  0  0  0  0  0  0  0  0  0  0
    2.1455   -5.6498    3.4507 H   0  0  0  0  0  0  0  0  0  0  0  0
    0.8869   -8.7787    1.2820 H   0  0  0  0  0  0  0  0  0  0  0  0
   -1.3894   -6.5767   -2.5452 H   0  0  0  0  0  0  0  0  0  0  0  0
   -1.1611  -11.6116   -2.2672 H   0  0  0  0  0  0  0  0  0  0  0  0
   -2.6365  -10.1943   -3.8919 H   0  0  0  0  0  0  0  0  0  0  0  0
   -2.6916   -8.4330   -3.6409 H   0  0  0  0  0  0  0  0  0  0  0  0
   -1.0257   -6.9812   -4.6514 H   0  0  0  0  0  0  0  0  0  0  0  0
    0.5635   -6.6671   -6.5058 H   0  0  0  0  0  0  0  0  0  0  0  0
    1.4169   -8.6195   -7.7399 H   0  0  0  0  0  0  0  0  0  0  0  0
    0.6818  -10.8860   -7.1190 H   0  0  0  0  0  0  0  0  0  0  0  0
   -0.9009  -11.2007   -5.2592 H   0  0  0  0  0  0  0  0  0  0  0  0
    2.4170   -4.1799    8.9244 H   0  0  0  0  0  0  0  0  0  0  0  0
    2.6058   -2.8981    7.6988 H   0  0  0  0  0  0  0  0  0  0  0  0
    0.3488   -2.8744    8.8352 H   0  0  0  0  0  0  0  0  0  0  0  0
    0.2512   -3.0858    7.0700 H   0  0  0  0  0  0  0  0  0  0  0  0
   -0.5188   -6.6303    7.2083 H   0  0  0  0  0  0  0  0  0  0  0  0
   -0.2447   -5.2325    6.1402 H   0  0  0  0  0  0  0  0  0  0  0  0
    1.7294   -6.6577    6.0625 H   0  0  0  0  0  0  0  0  0  0  0  0
    1.8376   -6.6654    7.8426 H   0  0  0  0  0  0  0  0  0  0  0  0
   -1.7061   -3.8283    9.2008 H   0  0  0  0  0  0  0  0  0  0  0  0
   -2.0399   -4.2309    7.4994 H   0  0  0  0  0  0  0  0  0  0  0  0
   -2.1172   -6.6393    8.0845 H   0  0  0  0  0  0  0  0  0  0  0  0
   -1.7834   -6.2367    9.7858 H   0  0  0  0  0  0  0  0  0  0  0  0
   -3.3077   -5.7136    9.0301 H   0  0  0  0  0  0  0  0  0  0  0  0
    1.3483   -6.5292    2.1162 H   0  0  0  0  0  0  0  0  0  0  0  0
  1  2  1  0  0  0  0
  1 43  1  0  0  0  0
  1 44  1  0  0  0  0
  1 45  1  0  0  0  0
  2  3  1  0  0  0  0
  2 46  1  0  0  0  0
  2 47  1  0  0  0  0
  3  4  1  0  0  0  0
  3 48  1  0  0  0  0
  3 49  1  0  0  0  0
  4  5  1  0  0  0  0
  5 10  2  0  0  0  0
  5  6  1  0  0  0  0
  6  7  2  0  0  0  0
  6 50  1  0  0  0  0
  7  8  1  0  0  0  0
  7 51  1  0  0  0  0
  8  9  2  0  0  0  0
  8 32  1  0  0  0  0
  9 10  1  0  0  0  0
  9 52  1  0  0  0  0
 10 11  1  0  0  0  0
 11 20  2  0  0  0  0
 11 12  1  0  0  0  0
 12 13  1  0  0  0  0
 12 76  1  0  0  0  0
 13 18  2  0  0  0  0
 13 14  1  0  0  0  0
 14 15  2  0  0  0  0
 14 53  1  0  0  0  0
 15 24  1  0  0  0  0
 15 16  1  0  0  0  0
 16 17  2  0  0  0  0
 16 22  1  0  0  0  0
 17 18  1  0  0  0  0
 17 54  1  0  0  0  0
 18 19  1  0  0  0  0
 19 20  1  0  0  0  0
 19 21  2  0  0  0  0
 22 23  1  0  0  0  0
 22 25  1  0  0  0  0
 23 24  2  0  0  0  0
 23 55  1  0  0  0  0
 25 26  1  0  0  0  0
 25 56  1  0  0  0  0
 25 57  1  0  0  0  0
 26 31  2  0  0  0  0
 26 27  1  0  0  0  0
 27 28  2  0  0  0  0
 27 58  1  0  0  0  0
 28 29  1  0  0  0  0
 28 59  1  0  0  0  0
 29 30  2  0  0  0  0
 29 60  1  0  0  0  0
 30 31  1  0  0  0  0
 30 61  1  0  0  0  0
 31 62  1  0  0  0  0
 32 33  2  0  0  0  0
 32 34  2  0  0  0  0
 32 35  1  0  0  0  0
 35 40  1  0  0  0  0
 35 36  1  0  0  0  0
 36 37  1  0  0  0  0
 36 63  1  0  0  0  0
 36 64  1  0  0  0  0
 37 38  1  0  0  0  0
 37 65  1  0  0  0  0
 37 66  1  0  0  0  0
 38 39  1  0  0  0  0
 38 41  1  0  0  0  0
 39 40  1  0  0  0  0
 39 67  1  0  0  0  0
 39 68  1  0  0  0  0
 40 69  1  0  0  0  0
 40 70  1  0  0  0  0
 41 42  1  0  0  0  0
 41 71  1  0  0  0  0
 41 72  1  0  0  0  0
 42 73  1  0  0  0  0
 42 74  1  0  0  0  0
 42 75  1  0  0  0  0
M  END
$$$$
CHEMBL227489
  -OEChem-07121202283D

 77 82  0     0  0  0  0  0  0999 V2000
   -0.0187    1.5258    0.0104 C   0  0  0  0  0  0  0  0  0  0  0  0
    0.0021   -0.0041    0.0020 C   0  0  0  0  0  0  0  0  0  0  0  0
    0.7421   -0.5109    1.2415 C   0  0  0  0  0  0  0  0  0  0  0  0
    0.7614   -1.9398    1.2337 O   0  0  0  0  0  0  0  0  0  0  0  0
    1.3844   -2.5533    2.2718 C   0  0  0  0  0  0  0  0  0  0  0  0
    1.9610   -1.7988    3.2819 C   0  0  0  0  0  0  0  0  0  0  0  0
    2.5942   -2.4243    4.3380 C   0  0  0  0  0  0  0  0  0  0  0  0
    2.6587   -3.8066    4.3966 C   0  0  0  0  0  0  0  0  0  0  0  0
    2.0910   -4.5718    3.4004 C   0  0  0  0  0  0  0  0  0  0  0  0
    1.4424   -3.9519    2.3303 C   0  0  0  0  0  0  0  0  0  0  0  0
    0.8271   -4.7654    1.2634 C   0  0  0  0  0  0  0  0  0  0  0  0
    0.2379   -4.1497    0.2712 N   0  0  0  0  0  0  0  0  0  0  0  0
   -0.3478   -4.8345   -0.7425 C   0  0  0  0  0  0  0  0  0  0  0  0
   -0.9714   -4.1708   -1.7934 C   0  0  0  0  0  0  0  0  0  0  0  0
   -1.5630   -4.9064   -2.8190 C   0  0  0  0  0  0  0  0  0  0  0  0
   -1.5290   -6.3166   -2.7906 C   0  0  0  0  0  0  0  0  0  0  0  0
   -0.9102   -6.9822   -1.7493 C   0  0  0  0  0  0  0  0  0  0  0  0
   -0.3189   -6.2521   -0.7231 C   0  0  0  0  0  0  0  0  0  0  0  0
    0.3504   -6.9161    0.4048 C   0  0  0  0  0  0  0  0  0  0  0  0
    0.9046   -6.1299    1.3559 N   0  0  0  0  0  0  0  0  0  0  0  0
    0.4078   -8.1298    0.4779 O   0  0  0  0  0  0  0  0  0  0  0  0
   -2.1926   -6.7349   -3.9310 N   0  0  0  0  0  0  0  0  0  0  0  0
   -2.5958   -5.6200   -4.5953 C   0  0  0  0  0  0  0  0  0  0  0  0
   -2.2292   -4.5521   -3.9479 N   0  0  0  0  0  0  0  0  0  0  0  0
   -2.4180   -8.1219   -4.3453 C   0  0  0  0  0  0  0  0  0  0  0  0
   -3.6564   -8.6528   -3.6703 C   0  0  0  0  0  0  0  0  0  0  0  0
   -3.5602   -9.2738   -2.4391 C   0  0  0  0  0  0  0  0  0  0  0  0
   -4.6962   -9.7608   -1.8200 C   0  0  0  0  0  0  0  0  0  0  0  0
   -5.9284   -9.6264   -2.4319 C   0  0  0  0  0  0  0  0  0  0  0  0
   -6.0247   -9.0045   -3.6628 C   0  0  0  0  0  0  0  0  0  0  0  0
   -4.8893   -8.5137   -4.2799 C   0  0  0  0  0  0  0  0  0  0  0  0
    3.4704   -4.5903    5.7499 S   0  0  0  0  0  0  0  0  0  0  0  0
    3.8700   -5.8757    5.2947 O   0  0  0  0  0  0  0  0  0  0  0  0
    4.3949   -3.6455    6.2713 O   0  0  0  0  0  0  0  0  0  0  0  0
    2.3320   -4.8378    6.9268 N   0  0  0  0  0  0  0  0  0  0  0  0
    2.0737   -3.8184    7.9556 C   0  0  0  0  0  0  0  0  0  0  0  0
    0.5642   -3.5627    8.0177 C   0  0  0  0  0  0  0  0  0  0  0  0
   -0.1381   -4.8340    8.2343 N   0  3  0  0  0  0  0  0  0  0  0  0
    0.0653   -5.7204    7.0815 C   0  0  0  0  0  0  0  0  0  0  0  0
    1.5461   -6.0806    6.9697 C   0  0  0  0  0  0  0  0  0  0  0  0
   -1.5742   -4.5753    8.4034 C   0  0  0  0  0  0  0  0  0  0  0  0
   -2.2900   -5.8817    8.7526 C   0  0  0  0  0  0  0  0  0  0  0  0
    1.0039    1.9031    0.0027 H   0  0  0  0  0  0  0  0  0  0  0  0
   -0.5459    1.8868   -0.8726 H   0  0  0  0  0  0  0  0  0  0  0  0
   -0.5289    1.8773    0.9072 H   0  0  0  0  0  0  0  0  0  0  0  0
   -1.0205   -0.3814    0.0098 H   0  0  0  0  0  0  0  0  0  0  0  0
    0.5123   -0.3556   -0.8948 H   0  0  0  0  0  0  0  0  0  0  0  0
    1.7647   -0.1336    1.2338 H   0  0  0  0  0  0  0  0  0  0  0  0
    0.2319   -0.1594    2.1383 H   0  0  0  0  0  0  0  0  0  0  0  0
    1.9154   -0.7204    3.2427 H   0  0  0  0  0  0  0  0  0  0  0  0
    3.0419   -1.8322    5.1225 H   0  0  0  0  0  0  0  0  0  0  0  0
    2.1439   -5.6494    3.4498 H   0  0  0  0  0  0  0  0  0  0  0  0
   -0.9975   -3.0914   -1.8146 H   0  0  0  0  0  0  0  0  0  0  0  0
   -0.8870   -8.0619   -1.7316 H   0  0  0  0  0  0  0  0  0  0  0  0
   -3.1416   -5.6200   -5.5273 H   0  0  0  0  0  0  0  0  0  0  0  0
   -2.5482   -8.1615   -5.4267 H   0  0  0  0  0  0  0  0  0  0  0  0
   -1.5596   -8.7303   -4.0602 H   0  0  0  0  0  0  0  0  0  0  0  0
   -2.5975   -9.3788   -1.9610 H   0  0  0  0  0  0  0  0  0  0  0  0
   -4.6209  -10.2466   -0.8584 H   0  0  0  0  0  0  0  0  0  0  0  0
   -6.8158  -10.0075   -1.9486 H   0  0  0  0  0  0  0  0  0  0  0  0
   -6.9873   -8.8998   -4.1410 H   0  0  0  0  0  0  0  0  0  0  0  0
   -4.9650   -8.0246   -5.2398 H   0  0  0  0  0  0  0  0  0  0  0  0
    2.4245   -4.1774    8.9231 H   0  0  0  0  0  0  0  0  0  0  0  0
    2.5911   -2.8953    7.6945 H   0  0  0  0  0  0  0  0  0  0  0  0
    0.3445   -2.8815    8.8397 H   0  0  0  0  0  0  0  0  0  0  0  0
    0.2318   -3.1192    7.0791 H   0  0  0  0  0  0  0  0  0  0  0  0
   -0.5220   -6.6291    7.2136 H   0  0  0  0  0  0  0  0  0  0  0  0
   -0.2520   -5.2116    6.1713 H   0  0  0  0  0  0  0  0  0  0  0  0
    1.7150   -6.6523    6.0571 H   0  0  0  0  0  0  0  0  0  0  0  0
    1.8428   -6.6719    7.8360 H   0  0  0  0  0  0  0  0  0  0  0  0
   -1.7213   -3.8542    9.2075 H   0  0  0  0  0  0  0  0  0  0  0  0
   -1.9828   -4.1738    7.4761 H   0  0  0  0  0  0  0  0  0  0  0  0
   -3.3557   -5.6897    8.8781 H   0  0  0  0  0  0  0  0  0  0  0  0
   -2.1430   -6.6027    7.9486 H   0  0  0  0  0  0  0  0  0  0  0  0
   -1.8815   -6.2832    9.6800 H   0  0  0  0  0  0  0  0  0  0  0  0
    1.3574   -6.5357    2.1117 H   0  0  0  0  0  0  0  0  0  0  0  0
    0.2214   -5.2779    9.0660 H   0  0  0  0  0  0  0  0  0  0  0  0
  1  2  1  0  0  0  0
  1 43  1  0  0  0  0
  1 44  1  0  0  0  0
  1 45  1  0  0  0  0
  2  3  1  0  0  0  0
  2 46  1  0  0  0  0
  2 47  1  0  0  0  0
  3  4  1  0  0  0  0
  3 48  1  0  0  0  0
  3 49  1  0  0  0  0
  4  5  1  0  0  0  0
  5 10  2  0  0  0  0
  5  6  1  0  0  0  0
  6  7  2  0  0  0  0
  6 50  1  0  0  0  0
  7  8  1  0  0  0  0
  7 51  1  0  0  0  0
  8  9  2  0  0  0  0
  8 32  1  0  0  0  0
  9 10  1  0  0  0  0
  9 52  1  0  0  0  0
 10 11  1  0  0  0  0
 11 20  1  0  0  0  0
 11 12  2  0  0  0  0
 12 13  1  0  0  0  0
 13 18  2  0  0  0  0
 13 14  1  0  0  0  0
 14 15  2  0  0  0  0
 14 53  1  0  0  0  0
 15 24  1  0  0  0  0
 15 16  1  0  0  0  0
 16 17  2  0  0  0  0
 16 22  1  0  0  0  0
 17 18  1  0  0  0  0
 17 54  1  0  0  0  0
 18 19  1  0  0  0  0
 19 20  1  0  0  0  0
 19 21  2  0  0  0  0
 20 76  1  0  0  0  0
 22 23  1  0  0  0  0
 22 25  1  0  0  0  0
 23 24  2  0  0  0  0
 23 55  1  0  0  0  0
 25 26  1  0  0  0  0
 25 56  1  0  0  0  0
 25 57  1  0  0  0  0
 26 31  2  0  0  0  0
 26 27  1  0  0  0  0
 27 28  2  0  0  0  0
 27 58  1  0  0  0  0
 28 29  1  0  0  0  0
 28 59  1  0  0  0  0
 29 30  2  0  0  0  0
 29 60  1  0  0  0  0
 30 31  1  0  0  0  0
 30 61  1  0  0  0  0
 31 62  1  0  0  0  0
 32 33  2  0  0  0  0
 32 34  2  0  0  0  0
 32 35  1  0  0  0  0
 35 40  1  0  0  0  0
 35 36  1  0  0  0  0
 36 37  1  0  0  0  0
 36 63  1  0  0  0  0
 36 64  1  0  0  0  0
 37 38  1  0  0  0  0
 37 65  1  0  0  0  0
 37 66  1  0  0  0  0
 38 39  1  0  0  0  0
 38 41  1  0  0  0  0
 38 77  1  0  0  0  0
 39 40  1  0  0  0  0
 39 67  1  0  0  0  0
 39 68  1  0  0  0  0
 40 69  1  0  0  0  0
 40 70  1  0  0  0  0
 41 42  1  0  0  0  0
 41 71  1  0  0  0  0
 41 72  1  0  0  0  0
 42 73  1  0  0  0  0
 42 74  1  0  0  0  0
 42 75  1  0  0  0  0
M  CHG  1  38   1
M  END
$$$$
CHEMBL541822
  -OEChem-07121202283D

 72 76  0     0  0  0  0  0  0999 V2000
   -3.2484   -6.2536   -3.3065 C   0  0  0  0  0  0  0  0  0  0  0  0
   -2.5369   -4.9742   -3.6645 C   0  0  0  0  0  0  0  0  0  0  0  0
   -1.5699   -4.4697   -2.8154 C   0  0  0  0  0  0  0  0  0  0  0  0
   -0.9214   -3.2922   -3.1540 C   0  0  0  0  0  0  0  0  0  0  0  0
   -1.2713   -2.6633   -4.3394 C   0  0  0  0  0  0  0  0  0  0  0  0
   -2.2478   -3.2273   -5.1380 C   0  0  0  0  0  0  0  0  0  0  0  0
   -2.8402   -4.3520   -4.7867 N   0  0  0  0  0  0  0  0  0  0  0  0
    0.1383   -2.7091   -2.2551 C   0  0  0  0  0  0  0  0  0  0  0  0
    1.4623   -3.1102   -2.7370 N   0  0  0  0  0  0  0  0  0  0  0  0
    2.1373   -2.2752   -3.6031 C   0  0  0  0  0  0  0  0  0  0  0  0
    3.3893   -2.6006   -4.0910 C   0  0  0  0  0  0  0  0  0  0  0  0
    4.0113   -3.8645   -3.6749 C   0  0  0  0  0  0  0  0  0  0  0  0
    5.2766   -4.2499   -4.1335 C   0  0  0  0  0  0  0  0  0  0  0  0
    5.7849   -5.4438   -3.6967 C   0  0  0  0  0  0  0  0  0  0  0  0
    5.0388   -6.2330   -2.8187 C   0  0  0  0  0  0  0  0  0  0  0  0
    3.8473   -5.8548   -2.3960 N   0  0  0  0  0  0  0  0  0  0  0  0
    3.3098   -4.7068   -2.7894 C   0  0  0  0  0  0  0  0  0  0  0  0
    1.9812   -4.2782   -2.3155 C   0  0  0  0  0  0  0  0  0  0  0  0
    1.3525   -4.9819   -1.5467 O   0  0  0  0  0  0  0  0  0  0  0  0
    5.5496   -7.4140   -2.3916 O   0  0  0  0  0  0  0  0  0  0  0  0
    4.7453   -8.1822   -1.4945 C   0  0  0  0  0  0  0  0  0  0  0  0
    5.4709   -9.4521   -1.1313 C   0  0  0  0  0  0  0  0  0  0  0  0
    6.7260   -9.7062   -1.6560 C   0  0  0  0  0  0  0  0  0  0  0  0
    7.3623  -10.8194   -1.3371 N   0  0  0  0  0  0  0  0  0  0  0  0
    6.8002  -11.6902   -0.5172 C   0  0  0  0  0  0  0  0  0  0  0  0
    5.5455  -11.4362    0.0073 C   0  0  0  0  0  0  0  0  0  0  0  0
    4.9111  -10.3204   -0.3076 N   0  0  0  0  0  0  0  0  0  0  0  0
    4.0918   -1.6896   -5.0187 C   0  0  0  0  0  0  0  0  0  0  0  0
    3.5632   -1.4387   -6.2867 C   0  0  0  0  0  0  0  0  0  0  0  0
    4.2225   -0.5858   -7.1531 C   0  0  0  0  0  0  0  0  0  0  0  0
    5.4120    0.0222   -6.7621 C   0  0  0  0  0  0  0  0  0  0  0  0
    5.9408   -0.2263   -5.4989 C   0  0  0  0  0  0  0  0  0  0  0  0
    5.2823   -1.0739   -4.6267 C   0  0  0  0  0  0  0  0  0  0  0  0
    7.1035    0.3690   -5.1200 O   0  0  0  0  0  0  0  0  0  0  0  0
    7.5888    0.0691   -3.8098 C   0  0  0  0  0  0  0  0  0  0  0  0
    6.0586    0.8601   -7.6160 O   0  0  0  0  0  0  0  0  0  0  0  0
    5.7098    2.2445   -7.5549 C   0  0  0  0  0  0  0  0  0  0  0  0
    3.7085   -0.3413   -8.3882 O   0  0  0  0  0  0  0  0  0  0  0  0
    2.4851   -0.9992   -8.7236 C   0  0  0  0  0  0  0  0  0  0  0  0
    1.5124   -1.0141   -4.0161 C   0  0  0  0  0  0  0  0  0  0  0  0
    2.1095   -0.2521   -4.7521 O   0  0  0  0  0  0  0  0  0  0  0  0
    0.2753   -0.6995   -3.5795 O   0  0  0  0  0  0  0  0  0  0  0  0
   -0.2718    0.5445   -4.0214 C   0  0  0  0  0  0  0  0  0  0  0  0
   -2.6984   -7.1016   -3.7144 H   0  0  0  0  0  0  0  0  0  0  0  0
   -3.3064   -6.3458   -2.2219 H   0  0  0  0  0  0  0  0  0  0  0  0
   -4.2551   -6.2386   -3.7242 H   0  0  0  0  0  0  0  0  0  0  0  0
   -1.3230   -4.9860   -1.8995 H   0  0  0  0  0  0  0  0  0  0  0  0
   -0.7869   -1.7443   -4.6345 H   0  0  0  0  0  0  0  0  0  0  0  0
   -2.5260   -2.7437   -6.0628 H   0  0  0  0  0  0  0  0  0  0  0  0
    0.0630   -1.6217   -2.2625 H   0  0  0  0  0  0  0  0  0  0  0  0
   -0.0051   -3.0763   -1.2388 H   0  0  0  0  0  0  0  0  0  0  0  0
    5.8357   -3.6235   -4.8128 H   0  0  0  0  0  0  0  0  0  0  0  0
    6.7579   -5.7738   -4.0297 H   0  0  0  0  0  0  0  0  0  0  0  0
    4.5532   -7.6026   -0.5916 H   0  0  0  0  0  0  0  0  0  0  0  0
    3.7990   -8.4294   -1.9757 H   0  0  0  0  0  0  0  0  0  0  0  0
    7.1852   -8.9948   -2.3263 H   0  0  0  0  0  0  0  0  0  0  0  0
    7.3201  -12.6002   -0.2569 H   0  0  0  0  0  0  0  0  0  0  0  0
    5.0861  -12.1478    0.6773 H   0  0  0  0  0  0  0  0  0  0  0  0
    2.6405   -1.9105   -6.5907 H   0  0  0  0  0  0  0  0  0  0  0  0
    5.6906   -1.2626   -3.6449 H   0  0  0  0  0  0  0  0  0  0  0  0
    6.8490    0.3739   -3.0697 H   0  0  0  0  0  0  0  0  0  0  0  0
    7.7674   -1.0028   -3.7250 H   0  0  0  0  0  0  0  0  0  0  0  0
    8.5204    0.6076   -3.6354 H   0  0  0  0  0  0  0  0  0  0  0  0
    6.2974    2.7998   -8.2859 H   0  0  0  0  0  0  0  0  0  0  0  0
    4.6491    2.3620   -7.7765 H   0  0  0  0  0  0  0  0  0  0  0  0
    5.9169    2.6276   -6.5557 H   0  0  0  0  0  0  0  0  0  0  0  0
    2.1864   -0.7181   -9.7334 H   0  0  0  0  0  0  0  0  0  0  0  0
    2.6275   -2.0787   -8.6740 H   0  0  0  0  0  0  0  0  0  0  0  0
    1.7081   -0.7025   -8.0190 H   0  0  0  0  0  0  0  0  0  0  0  0
   -1.2681    0.6739   -3.5985 H   0  0  0  0  0  0  0  0  0  0  0  0
    0.3711    1.3612   -3.6932 H   0  0  0  0  0  0  0  0  0  0  0  0
   -0.3358    0.5472   -5.1095 H   0  0  0  0  0  0  0  0  0  0  0  0
  1  2  1  0  0  0  0
  1 44  1  0  0  0  0
  1 45  1  0  0  0  0
  1 46  1  0  0  0  0
  2  7  2  0  0  0  0
  2  3  1  0  0  0  0
  3  4  2  0  0  0  0
  3 47  1  0  0  0  0
  4  5  1  0  0  0  0
  4  8  1  0  0  0  0
  5  6  2  0  0  0  0
  5 48  1  0  0  0  0
  6  7  1  0  0  0  0
  6 49  1  0  0  0  0
  8  9  1  0  0  0  0
  8 50  1  0  0  0  0
  8 51  1  0  0  0  0
  9 18  1  0  0  0  0
  9 10  1  0  0  0  0
 10 11  2  0  0  0  0
 10 40  1  0  0  0  0
 11 12  1  0  0  0  0
 11 28  1  0  0  0  0
 12 17  2  0  0  0  0
 12 13  1  0  0  0  0
 13 14  2  0  0  0  0
 13 52  1  0  0  0  0
 14 15  1  0  0  0  0
 14 53  1  0  0  0  0
 15 16  2  0  0  0  0
 15 20  1  0  0  0  0
 16 17  1  0  0  0  0
 17 18  1  0  0  0  0
 18 19  2  0  0  0  0
 20 21  1  0  0  0  0
 21 22  1  0  0  0  0
 21 54  1  0  0  0  0
 21 55  1  0  0  0  0
 22 27  2  0  0  0  0
 22 23  1  0  0  0  0
 23 24  2  0  0  0  0
 23 56  1  0  0  0  0
 24 25  1  0  0  0  0
 25 26  2  0  0  0  0
 25 57  1  0  0  0  0
 26 27  1  0  0  0  0
 26 58  1  0  0  0  0
 28 33  2  0  0  0  0
 28 29  1  0  0  0  0
 29 30  2  0  0  0  0
 29 59  1  0  0  0  0
 30 31  1  0  0  0  0
 30 38  1  0  0  0  0
 31 32  2  0  0  0  0
 31 36  1  0  0  0  0
 32 33  1  0  0  0  0
 32 34  1  0  0  0  0
 33 60  1  0  0  0  0
 34 35  1  0  0  0  0
 35 61  1  0  0  0  0
 35 62  1  0  0  0  0
 35 63  1  0  0  0  0
 36 37  1  0  0  0  0
 37 64  1  0  0  0  0
 37 65  1  0  0  0  0
 37 66  1  0  0  0  0
 38 39  1  0  0  0  0
 39 67  1  0  0  0  0
 39 68  1  0  0  0  0
 39 69  1  0  0  0  0
 40 41  2  0  0  0  0
 40 42  1  0  0  0  0
 42 43  1  0  0  0  0
 43 70  1  0  0  0  0
 43 71  1  0  0  0  0
 43 72  1  0  0  0  0
M  END
$$$$
CHEMBL541822
  -OEChem-07121202283D

 73 77  0     0  0  0  0  0  0999 V2000
   -3.2484   -6.2536   -3.3065 C   0  0  0  0  0  0  0  0  0  0  0  0
   -2.5369   -4.9742   -3.6645 C   0  0  0  0  0  0  0  0  0  0  0  0
   -1.5699   -4.4697   -2.8154 C   0  0  0  0  0  0  0  0  0  0  0  0
   -0.9214   -3.2922   -3.1540 C   0  0  0  0  0  0  0  0  0  0  0  0
   -1.2713   -2.6633   -4.3394 C   0  0  0  0  0  0  0  0  0  0  0  0
   -2.2478   -3.2273   -5.1380 C   0  0  0  0  0  0  0  0  0  0  0  0
   -2.8402   -4.3520   -4.7867 N   0  3  0  0  0  0  0  0  0  0  0  0
    0.1383   -2.7091   -2.2551 C   0  0  0  0  0  0  0  0  0  0  0  0
    1.4623   -3.1102   -2.7370 N   0  0  0  0  0  0  0  0  0  0  0  0
    2.1373   -2.2752   -3.6031 C   0  0  0  0  0  0  0  0  0  0  0  0
    3.3893   -2.6006   -4.0910 C   0  0  0  0  0  0  0  0  0  0  0  0
    4.0113   -3.8645   -3.6749 C   0  0  0  0  0  0  0  0  0  0  0  0
    5.2766   -4.2499   -4.1335 C   0  0  0  0  0  0  0  0  0  0  0  0
    5.7849   -5.4438   -3.6967 C   0  0  0  0  0  0  0  0  0  0  0  0
    5.0388   -6.2330   -2.8187 C   0  0  0  0  0  0  0  0  0  0  0  0
    3.8473   -5.8548   -2.3960 N   0  0  0  0  0  0  0  0  0  0  0  0
    3.3098   -4.7068   -2.7894 C   0  0  0  0  0  0  0  0  0  0  0  0
    1.9812   -4.2782   -2.3155 C   0  0  0  0  0  0  0  0  0  0  0  0
    1.3525   -4.9819   -1.5467 O   0  0  0  0  0  0  0  0  0  0  0  0
    5.5496   -7.4140   -2.3916 O   0  0  0  0  0  0  0  0  0  0  0  0
    4.7453   -8.1822   -1.4945 C   0  0  0  0  0  0  0  0  0  0  0  0
    5.4709   -9.4521   -1.1313 C   0  0  0  0  0  0  0  0  0  0  0  0
    6.7260   -9.7062   -1.6560 C   0  0  0  0  0  0  0  0  0  0  0  0
    7.3623  -10.8194   -1.3371 N   0  0  0  0  0  0  0  0  0  0  0  0
    6.8002  -11.6902   -0.5172 C   0  0  0  0  0  0  0  0  0  0  0  0
    5.5455  -11.4362    0.0073 C   0  0  0  0  0  0  0  0  0  0  0  0
    4.9111  -10.3204   -0.3076 N   0  0  0  0  0  0  0  0  0  0  0  0
    4.0918   -1.6896   -5.0187 C   0  0  0  0  0  0  0  0  0  0  0  0
    3.5632   -1.4387   -6.2867 C   0  0  0  0  0  0  0  0  0  0  0  0
    4.2225   -0.5858   -7.1531 C   0  0  0  0  0  0  0  0  0  0  0  0
    5.4120    0.0222   -6.7621 C   0  0  0  0  0  0  0  0  0  0  0  0
    5.9408   -0.2263   -5.4989 C   0  0  0  0  0  0  0  0  0  0  0  0
    5.2823   -1.0739   -4.6267 C   0  0  0  0  0  0  0  0  0  0  0  0
    7.1035    0.3690   -5.1200 O   0  0  0  0  0  0  0  0  0  0  0  0
    7.5888    0.0691   -3.8098 C   0  0  0  0  0  0  0  0  0  0  0  0
    6.0586    0.8601   -7.6160 O   0  0  0  0  0  0  0  0  0  0  0  0
    5.7098    2.2445   -7.5549 C   0  0  0  0  0  0  0  0  0  0  0  0
    3.7085   -0.3413   -8.3882 O   0  0  0  0  0  0  0  0  0  0  0  0
    2.4851   -0.9992   -8.7236 C   0  0  0  0  0  0  0  0  0  0  0  0
    1.5124   -1.0141   -4.0161 C   0  0  0  0  0  0  0  0  0  0  0  0
    2.1095   -0.2521   -4.7521 O   0  0  0  0  0  0  0  0  0  0  0  0
    0.2753   -0.6995   -3.5795 O   0  0  0  0  0  0  0  0  0  0  0  0
   -0.2718    0.5445   -4.0214 C   0  0  0  0  0  0  0  0  0  0  0  0
   -2.6984   -7.1016   -3.7144 H   0  0  0  0  0  0  0  0  0  0  0  0
   -3.3064   -6.3458   -2.2219 H   0  0  0  0  0  0  0  0  0  0  0  0
   -4.2551   -6.2386   -3.7242 H   0  0  0  0  0  0  0  0  0  0  0  0
   -1.3230   -4.9860   -1.8995 H   0  0  0  0  0  0  0  0  0  0  0  0
   -0.7869   -1.7443   -4.6345 H   0  0  0  0  0  0  0  0  0  0  0  0
   -2.5260   -2.7437   -6.0628 H   0  0  0  0  0  0  0  0  0  0  0  0
    0.0630   -1.6217   -2.2625 H   0  0  0  0  0  0  0  0  0  0  0  0
   -0.0051   -3.0763   -1.2388 H   0  0  0  0  0  0  0  0  0  0  0  0
    5.8357   -3.6235   -4.8128 H   0  0  0  0  0  0  0  0  0  0  0  0
    6.7579   -5.7738   -4.0297 H   0  0  0  0  0  0  0  0  0  0  0  0
    4.5532   -7.6026   -0.5916 H   0  0  0  0  0  0  0  0  0  0  0  0
    3.7990   -8.4294   -1.9757 H   0  0  0  0  0  0  0  0  0  0  0  0
    7.1852   -8.9948   -2.3263 H   0  0  0  0  0  0  0  0  0  0  0  0
    7.3201  -12.6002   -0.2569 H   0  0  0  0  0  0  0  0  0  0  0  0
    5.0861  -12.1478    0.6773 H   0  0  0  0  0  0  0  0  0  0  0  0
    2.6405   -1.9105   -6.5907 H   0  0  0  0  0  0  0  0  0  0  0  0
    5.6906   -1.2626   -3.6449 H   0  0  0  0  0  0  0  0  0  0  0  0
    6.8490    0.3739   -3.0697 H   0  0  0  0  0  0  0  0  0  0  0  0
    7.7674   -1.0028   -3.7250 H   0  0  0  0  0  0  0  0  0  0  0  0
    8.5204    0.6076   -3.6354 H   0  0  0  0  0  0  0  0  0  0  0  0
    6.2974    2.7998   -8.2859 H   0  0  0  0  0  0  0  0  0  0  0  0
    4.6491    2.3620   -7.7765 H   0  0  0  0  0  0  0  0  0  0  0  0
    5.9169    2.6276   -6.5557 H   0  0  0  0  0  0  0  0  0  0  0  0
    2.1864   -0.7181   -9.7334 H   0  0  0  0  0  0  0  0  0  0  0  0
    2.6275   -2.0787   -8.6740 H   0  0  0  0  0  0  0  0  0  0  0  0
    1.7081   -0.7025   -8.0190 H   0  0  0  0  0  0  0  0  0  0  0  0
    0.3711    1.3612   -3.6932 H   0  0  0  0  0  0  0  0  0  0  0  0
   -0.3358    0.5472   -5.1095 H   0  0  0  0  0  0  0  0  0  0  0  0
   -1.2681    0.6739   -3.5985 H   0  0  0  0  0  0  0  0  0  0  0  0
   -3.5198   -4.7292   -5.3671 H   0  0  0  0  0  0  0  0  0  0  0  0
  1  2  1  0  0  0  0
  1 44  1  0  0  0  0
  1 45  1  0  0  0  0
  1 46  1  0  0  0  0
  2  7  2  0  0  0  0
  2  3  1  0  0  0  0
  3  4  2  0  0  0  0
  3 47  1  0  0  0  0
  4  5  1  0  0  0  0
  4  8  1  0  0  0  0
  5  6  2  0  0  0  0
  5 48  1  0  0  0  0
  6  7  1  0  0  0  0
  6 49  1  0  0  0  0
  7 73  1  0  0  0  0
  8  9  1  0  0  0  0
  8 50  1  0  0  0  0
  8 51  1  0  0  0  0
  9 18  1  0  0  0  0
  9 10  1  0  0  0  0
 10 11  2  0  0  0  0
 10 40  1  0  0  0  0
 11 12  1  0  0  0  0
 11 28  1  0  0  0  0
 12 17  2  0  0  0  0
 12 13  1  0  0  0  0
 13 14  2  0  0  0  0
 13 52  1  0  0  0  0
 14 15  1  0  0  0  0
 14 53  1  0  0  0  0
 15 16  2  0  0  0  0
 15 20  1  0  0  0  0
 16 17  1  0  0  0  0
 17 18  1  0  0  0  0
 18 19  2  0  0  0  0
 20 21  1  0  0  0  0
 21 22  1  0  0  0  0
 21 54  1  0  0  0  0
 21 55  1  0  0  0  0
 22 27  2  0  0  0  0
 22 23  1  0  0  0  0
 23 24  2  0  0  0  0
 23 56  1  0  0  0  0
 24 25  1  0  0  0  0
 25 26  2  0  0  0  0
 25 57  1  0  0  0  0
 26 27  1  0  0  0  0
 26 58  1  0  0  0  0
 28 33  2  0  0  0  0
 28 29  1  0  0  0  0
 29 30  2  0  0  0  0
 29 59  1  0  0  0  0
 30 31  1  0  0  0  0
 30 38  1  0  0  0  0
 31 32  2  0  0  0  0
 31 36  1  0  0  0  0
 32 33  1  0  0  0  0
 32 34  1  0  0  0  0
 33 60  1  0  0  0  0
 34 35  1  0  0  0  0
 35 61  1  0  0  0  0
 35 62  1  0  0  0  0
 35 63  1  0  0  0  0
 36 37  1  0  0  0  0
 37 64  1  0  0  0  0
 37 65  1  0  0  0  0
 37 66  1  0  0  0  0
 38 39  1  0  0  0  0
 39 67  1  0  0  0  0
 39 68  1  0  0  0  0
 39 69  1  0  0  0  0
 40 41  2  0  0  0  0
 40 42  1  0  0  0  0
 42 43  1  0  0  0  0
 43 70  1  0  0  0  0
 43 71  1  0  0  0  0
 43 72  1  0  0  0  0
M  CHG  1   7   1
M  END
$$$$
CHEMBL541823
  -OEChem-07121202283D

 69 72  0     0  0  0  0  0  0999 V2000
    0.4329    1.2954    0.5007 C   0  0  0  0  0  0  0  0  0  0  0  0
    0.3261   -0.2013    0.3615 C   0  0  0  0  0  0  0  0  0  0  0  0
    0.2504   -0.7666   -0.8976 C   0  0  0  0  0  0  0  0  0  0  0  0
    0.1524   -2.1445   -1.0146 C   0  0  0  0  0  0  0  0  0  0  0  0
    0.1341   -2.9057    0.1444 C   0  0  0  0  0  0  0  0  0  0  0  0
    0.2137   -2.2701    1.3687 C   0  0  0  0  0  0  0  0  0  0  0  0
    0.3114   -0.9569    1.4420 N   0  0  0  0  0  0  0  0  0  0  0  0
    0.0673   -2.7995   -2.3692 C   0  0  0  0  0  0  0  0  0  0  0  0
    1.4151   -2.9557   -2.9216 N   0  0  0  0  0  0  0  0  0  0  0  0
    1.9193   -1.9636   -3.7350 C   0  0  0  0  0  0  0  0  0  0  0  0
    3.1833   -2.0525   -4.2864 C   0  0  0  0  0  0  0  0  0  0  0  0
    4.0026   -3.2362   -3.9936 C   0  0  0  0  0  0  0  0  0  0  0  0
    5.2880   -3.4081   -4.5066 C   0  0  0  0  0  0  0  0  0  0  0  0
    5.9842   -4.5534   -4.1767 C   0  0  0  0  0  0  0  0  0  0  0  0
    5.4616   -5.4800   -3.3930 N   0  0  0  0  0  0  0  0  0  0  0  0
    4.2463   -5.3727   -2.8760 C   0  0  0  0  0  0  0  0  0  0  0  0
    3.4669   -4.2416   -3.1575 C   0  0  0  0  0  0  0  0  0  0  0  0
    2.1198   -4.0612   -2.6125 C   0  0  0  0  0  0  0  0  0  0  0  0
    1.6365   -4.9100   -1.8853 O   0  0  0  0  0  0  0  0  0  0  0  0
    3.7481   -6.3733   -2.0618 N   0  0  0  0  0  0  0  0  0  0  0  0
    4.5147   -7.6058   -1.8632 C   0  0  0  0  0  0  0  0  0  0  0  0
    3.7457   -8.5394   -0.9262 C   0  0  0  0  0  0  0  0  0  0  0  0
    2.5290   -8.9482   -1.5544 O   0  0  0  0  0  0  0  0  0  0  0  0
    3.7015   -0.9758   -5.1558 C   0  0  0  0  0  0  0  0  0  0  0  0
    3.0883   -0.7111   -6.3823 C   0  0  0  0  0  0  0  0  0  0  0  0
    3.5753    0.2970   -7.1943 C   0  0  0  0  0  0  0  0  0  0  0  0
    4.6759    1.0472   -6.7901 C   0  0  0  0  0  0  0  0  0  0  0  0
    5.2888    0.7854   -5.5682 C   0  0  0  0  0  0  0  0  0  0  0  0
    4.8018   -0.2176   -4.7498 C   0  0  0  0  0  0  0  0  0  0  0  0
    6.3639    1.5201   -5.1761 O   0  0  0  0  0  0  0  0  0  0  0  0
    6.9435    1.1974   -3.9105 C   0  0  0  0  0  0  0  0  0  0  0  0
    5.1533    2.0374   -7.5907 O   0  0  0  0  0  0  0  0  0  0  0  0
    4.6043    3.3435   -7.4047 C   0  0  0  0  0  0  0  0  0  0  0  0
    2.9786    0.5553   -8.3887 O   0  0  0  0  0  0  0  0  0  0  0  0
    1.8543   -0.2535   -8.7406 C   0  0  0  0  0  0  0  0  0  0  0  0
    1.0927   -0.7834   -4.0230 C   0  0  0  0  0  0  0  0  0  0  0  0
    1.5146    0.0899   -4.7559 O   0  0  0  0  0  0  0  0  0  0  0  0
   -0.1340   -0.6691   -3.4742 O   0  0  0  0  0  0  0  0  0  0  0  0
   -0.8825    0.5045   -3.7975 C   0  0  0  0  0  0  0  0  0  0  0  0
    1.4833    1.5864    0.4994 H   0  0  0  0  0  0  0  0  0  0  0  0
   -0.0781    1.7753   -0.3340 H   0  0  0  0  0  0  0  0  0  0  0  0
   -0.0293    1.6071    1.4374 H   0  0  0  0  0  0  0  0  0  0  0  0
    0.2670   -0.1428   -1.7790 H   0  0  0  0  0  0  0  0  0  0  0  0
    0.0584   -3.9817    0.0908 H   0  0  0  0  0  0  0  0  0  0  0  0
    0.2001   -2.8557    2.2760 H   0  0  0  0  0  0  0  0  0  0  0  0
   -0.4007   -3.7790   -2.2703 H   0  0  0  0  0  0  0  0  0  0  0  0
   -0.5292   -2.1776   -3.0366 H   0  0  0  0  0  0  0  0  0  0  0  0
    5.7295   -2.6606   -5.1491 H   0  0  0  0  0  0  0  0  0  0  0  0
    6.9803   -4.6958   -4.5690 H   0  0  0  0  0  0  0  0  0  0  0  0
    2.8910   -6.2591   -1.6222 H   0  0  0  0  0  0  0  0  0  0  0  0
    4.6657   -8.0986   -2.8236 H   0  0  0  0  0  0  0  0  0  0  0  0
    5.4821   -7.3649   -1.4224 H   0  0  0  0  0  0  0  0  0  0  0  0
    4.3543   -9.4168   -0.7076 H   0  0  0  0  0  0  0  0  0  0  0  0
    3.5172   -8.0153    0.0018 H   0  0  0  0  0  0  0  0  0  0  0  0
    1.9891   -9.5431   -1.0162 H   0  0  0  0  0  0  0  0  0  0  0  0
    2.2348   -1.2934   -6.6967 H   0  0  0  0  0  0  0  0  0  0  0  0
    5.2750   -0.4174   -3.7998 H   0  0  0  0  0  0  0  0  0  0  0  0
    6.1982    1.3273   -3.1258 H   0  0  0  0  0  0  0  0  0  0  0  0
    7.2842    0.1621   -3.9202 H   0  0  0  0  0  0  0  0  0  0  0  0
    7.7903    1.8568   -3.7199 H   0  0  0  0  0  0  0  0  0  0  0  0
    5.0708    4.0368   -8.1045 H   0  0  0  0  0  0  0  0  0  0  0  0
    3.5295    3.3147   -7.5839 H   0  0  0  0  0  0  0  0  0  0  0  0
    4.7937    3.6753   -6.3838 H   0  0  0  0  0  0  0  0  0  0  0  0
    1.4744    0.0563   -9.7142 H   0  0  0  0  0  0  0  0  0  0  0  0
    2.1587   -1.2991   -8.7853 H   0  0  0  0  0  0  0  0  0  0  0  0
    1.0722   -0.1344   -7.9907 H   0  0  0  0  0  0  0  0  0  0  0  0
   -1.8476    0.4706   -3.2920 H   0  0  0  0  0  0  0  0  0  0  0  0
   -0.3326    1.3874   -3.4719 H   0  0  0  0  0  0  0  0  0  0  0  0
   -1.0384    0.5506   -4.8753 H   0  0  0  0  0  0  0  0  0  0  0  0
  1  2  1  0  0  0  0
  1 40  1  0  0  0  0
  1 41  1  0  0  0  0
  1 42  1  0  0  0  0
  2  7  2  0  0  0  0
  2  3  1  0  0  0  0
  3  4  2  0  0  0  0
  3 43  1  0  0  0  0
  4  5  1  0  0  0  0
  4  8  1  0  0  0  0
  5  6  2  0  0  0  0
  5 44  1  0  0  0  0
  6  7  1  0  0  0  0
  6 45  1  0  0  0  0
  8  9  1  0  0  0  0
  8 46  1  0  0  0  0
  8 47  1  0  0  0  0
  9 18  1  0  0  0  0
  9 10  1  0  0  0  0
 10 11  2  0  0  0  0
 10 36  1  0  0  0  0
 11 12  1  0  0  0  0
 11 24  1  0  0  0  0
 12 17  2  0  0  0  0
 12 13  1  0  0  0  0
 13 14  2  0  0  0  0
 13 48  1  0  0  0  0
 14 15  1  0  0  0  0
 14 49  1  0  0  0  0
 15 16  2  0  0  0  0
 16 17  1  0  0  0  0
 16 20  1  0  0  0  0
 17 18  1  0  0  0  0
 18 19  2  0  0  0  0
 20 21  1  0  0  0  0
 20 50  1  0  0  0  0
 21 22  1  0  0  0  0
 21 51  1  0  0  0  0
 21 52  1  0  0  0  0
 22 23  1  0  0  0  0
 22 53  1  0  0  0  0
 22 54  1  0  0  0  0
 23 55  1  0  0  0  0
 24 29  2  0  0  0  0
 24 25  1  0  0  0  0
 25 26  2  0  0  0  0
 25 56  1  0  0  0  0
 26 27  1  0  0  0  0
 26 34  1  0  0  0  0
 27 28  2  0  0  0  0
 27 32  1  0  0  0  0
 28 29  1  0  0  0  0
 28 30  1  0  0  0  0
 29 57  1  0  0  0  0
 30 31  1  0  0  0  0
 31 58  1  0  0  0  0
 31 59  1  0  0  0  0
 31 60  1  0  0  0  0
 32 33  1  0  0  0  0
 33 61  1  0  0  0  0
 33 62  1  0  0  0  0
 33 63  1  0  0  0  0
 34 35  1  0  0  0  0
 35 64  1  0  0  0  0
 35 65  1  0  0  0  0
 35 66  1  0  0  0  0
 36 37  2  0  0  0  0
 36 38  1  0  0  0  0
 38 39  1  0  0  0  0
 39 67  1  0  0  0  0
 39 68  1  0  0  0  0
 39 69  1  0  0  0  0
M  END
$$$$
CHEMBL541823
  -OEChem-07121202283D

 70 73  0     0  0  0  0  0  0999 V2000
    0.4329    1.2954    0.5007 C   0  0  0  0  0  0  0  0  0  0  0  0
    0.3261   -0.2013    0.3615 C   0  0  0  0  0  0  0  0  0  0  0  0
    0.2504   -0.7666   -0.8976 C   0  0  0  0  0  0  0  0  0  0  0  0
    0.1524   -2.1445   -1.0146 C   0  0  0  0  0  0  0  0  0  0  0  0
    0.1341   -2.9057    0.1444 C   0  0  0  0  0  0  0  0  0  0  0  0
    0.2137   -2.2701    1.3687 C   0  0  0  0  0  0  0  0  0  0  0  0
    0.3114   -0.9569    1.4420 N   0  3  0  0  0  0  0  0  0  0  0  0
    0.0673   -2.7995   -2.3692 C   0  0  0  0  0  0  0  0  0  0  0  0
    1.4151   -2.9557   -2.9216 N   0  0  0  0  0  0  0  0  0  0  0  0
    1.9193   -1.9636   -3.7350 C   0  0  0  0  0  0  0  0  0  0  0  0
    3.1833   -2.0525   -4.2864 C   0  0  0  0  0  0  0  0  0  0  0  0
    4.0026   -3.2362   -3.9936 C   0  0  0  0  0  0  0  0  0  0  0  0
    5.2880   -3.4081   -4.5066 C   0  0  0  0  0  0  0  0  0  0  0  0
    5.9842   -4.5534   -4.1767 C   0  0  0  0  0  0  0  0  0  0  0  0
    5.4616   -5.4800   -3.3930 N   0  0  0  0  0  0  0  0  0  0  0  0
    4.2463   -5.3727   -2.8760 C   0  0  0  0  0  0  0  0  0  0  0  0
    3.4669   -4.2416   -3.1575 C   0  0  0  0  0  0  0  0  0  0  0  0
    2.1198   -4.0612   -2.6125 C   0  0  0  0  0  0  0  0  0  0  0  0
    1.6365   -4.9100   -1.8853 O   0  0  0  0  0  0  0  0  0  0  0  0
    3.7481   -6.3733   -2.0618 N   0  0  0  0  0  0  0  0  0  0  0  0
    4.5147   -7.6058   -1.8632 C   0  0  0  0  0  0  0  0  0  0  0  0
    3.7457   -8.5394   -0.9262 C   0  0  0  0  0  0  0  0  0  0  0  0
    2.5290   -8.9482   -1.5544 O   0  0  0  0  0  0  0  0  0  0  0  0
    3.7015   -0.9758   -5.1558 C   0  0  0  0  0  0  0  0  0  0  0  0
    3.0883   -0.7111   -6.3823 C   0  0  0  0  0  0  0  0  0  0  0  0
    3.5753    0.2970   -7.1943 C   0  0  0  0  0  0  0  0  0  0  0  0
    4.6759    1.0472   -6.7901 C   0  0  0  0  0  0  0  0  0  0  0  0
    5.2888    0.7854   -5.5682 C   0  0  0  0  0  0  0  0  0  0  0  0
    4.8018   -0.2176   -4.7498 C   0  0  0  0  0  0  0  0  0  0  0  0
    6.3639    1.5201   -5.1761 O   0  0  0  0  0  0  0  0  0  0  0  0
    6.9435    1.1974   -3.9105 C   0  0  0  0  0  0  0  0  0  0  0  0
    5.1533    2.0374   -7.5907 O   0  0  0  0  0  0  0  0  0  0  0  0
    4.6043    3.3435   -7.4047 C   0  0  0  0  0  0  0  0  0  0  0  0
    2.9786    0.5553   -8.3887 O   0  0  0  0  0  0  0  0  0  0  0  0
    1.8543   -0.2535   -8.7406 C   0  0  0  0  0  0  0  0  0  0  0  0
    1.0927   -0.7834   -4.0230 C   0  0  0  0  0  0  0  0  0  0  0  0
    1.5146    0.0899   -4.7559 O   0  0  0  0  0  0  0  0  0  0  0  0
   -0.1340   -0.6691   -3.4742 O   0  0  0  0  0  0  0  0  0  0  0  0
   -0.8825    0.5045   -3.7975 C   0  0  0  0  0  0  0  0  0  0  0  0
    1.4833    1.5864    0.4994 H   0  0  0  0  0  0  0  0  0  0  0  0
   -0.0781    1.7753   -0.3340 H   0  0  0  0  0  0  0  0  0  0  0  0
   -0.0293    1.6071    1.4374 H   0  0  0  0  0  0  0  0  0  0  0  0
    0.2670   -0.1428   -1.7790 H   0  0  0  0  0  0  0  0  0  0  0  0
    0.0584   -3.9817    0.0908 H   0  0  0  0  0  0  0  0  0  0  0  0
    0.2001   -2.8557    2.2760 H   0  0  0  0  0  0  0  0  0  0  0  0
   -0.4007   -3.7790   -2.2703 H   0  0  0  0  0  0  0  0  0  0  0  0
   -0.5292   -2.1776   -3.0366 H   0  0  0  0  0  0  0  0  0  0  0  0
    5.7295   -2.6606   -5.1491 H   0  0  0  0  0  0  0  0  0  0  0  0
    6.9803   -4.6958   -4.5690 H   0  0  0  0  0  0  0  0  0  0  0  0
    2.8910   -6.2591   -1.6222 H   0  0  0  0  0  0  0  0  0  0  0  0
    4.6657   -8.0986   -2.8236 H   0  0  0  0  0  0  0  0  0  0  0  0
    5.4821   -7.3649   -1.4224 H   0  0  0  0  0  0  0  0  0  0  0  0
    4.3543   -9.4168   -0.7076 H   0  0  0  0  0  0  0  0  0  0  0  0
    3.5172   -8.0153    0.0018 H   0  0  0  0  0  0  0  0  0  0  0  0
    1.9891   -9.5431   -1.0162 H   0  0  0  0  0  0  0  0  0  0  0  0
    2.2348   -1.2934   -6.6967 H   0  0  0  0  0  0  0  0  0  0  0  0
    5.2750   -0.4174   -3.7998 H   0  0  0  0  0  0  0  0  0  0  0  0
    7.2842    0.1621   -3.9202 H   0  0  0  0  0  0  0  0  0  0  0  0
    7.7903    1.8568   -3.7199 H   0  0  0  0  0  0  0  0  0  0  0  0
    6.1982    1.3273   -3.1258 H   0  0  0  0  0  0  0  0  0  0  0  0
    5.0708    4.0368   -8.1045 H   0  0  0  0  0  0  0  0  0  0  0  0
    3.5295    3.3147   -7.5839 H   0  0  0  0  0  0  0  0  0  0  0  0
    4.7937    3.6753   -6.3838 H   0  0  0  0  0  0  0  0  0  0  0  0
    1.4744    0.0563   -9.7142 H   0  0  0  0  0  0  0  0  0  0  0  0
    2.1587   -1.2991   -8.7853 H   0  0  0  0  0  0  0  0  0  0  0  0
    1.0722   -0.1344   -7.9907 H   0  0  0  0  0  0  0  0  0  0  0  0
   -0.3326    1.3874   -3.4719 H   0  0  0  0  0  0  0  0  0  0  0  0
   -1.0384    0.5506   -4.8753 H   0  0  0  0  0  0  0  0  0  0  0  0
   -1.8476    0.4706   -3.2920 H   0  0  0  0  0  0  0  0  0  0  0  0
    0.3698   -0.5355    2.3138 H   0  0  0  0  0  0  0  0  0  0  0  0
  1  2  1  0  0  0  0
  1 40  1  0  0  0  0
  1 41  1  0  0  0  0
  1 42  1  0  0  0  0
  2  7  2  0  0  0  0
  2  3  1  0  0  0  0
  3  4  2  0  0  0  0
  3 43  1  0  0  0  0
  4  5  1  0  0  0  0
  4  8  1  0  0  0  0
  5  6  2  0  0  0  0
  5 44  1  0  0  0  0
  6  7  1  0  0  0  0
  6 45  1  0  0  0  0
  7 70  1  0  0  0  0
  8  9  1  0  0  0  0
  8 46  1  0  0  0  0
  8 47  1  0  0  0  0
  9 18  1  0  0  0  0
  9 10  1  0  0  0  0
 10 11  2  0  0  0  0
 10 36  1  0  0  0  0
 11 12  1  0  0  0  0
 11 24  1  0  0  0  0
 12 17  2  0  0  0  0
 12 13  1  0  0  0  0
 13 14  2  0  0  0  0
 13 48  1  0  0  0  0
 14 15  1  0  0  0  0
 14 49  1  0  0  0  0
 15 16  2  0  0  0  0
 16 17  1  0  0  0  0
 16 20  1  0  0  0  0
 17 18  1  0  0  0  0
 18 19  2  0  0  0  0
 20 21  1  0  0  0  0
 20 50  1  0  0  0  0
 21 22  1  0  0  0  0
 21 51  1  0  0  0  0
 21 52  1  0  0  0  0
 22 23  1  0  0  0  0
 22 53  1  0  0  0  0
 22 54  1  0  0  0  0
 23 55  1  0  0  0  0
 24 29  2  0  0  0  0
 24 25  1  0  0  0  0
 25 26  2  0  0  0  0
 25 56  1  0  0  0  0
 26 27  1  0  0  0  0
 26 34  1  0  0  0  0
 27 28  2  0  0  0  0
 27 32  1  0  0  0  0
 28 29  1  0  0  0  0
 28 30  1  0  0  0  0
 29 57  1  0  0  0  0
 30 31  1  0  0  0  0
 31 58  1  0  0  0  0
 31 59  1  0  0  0  0
 31 60  1  0  0  0  0
 32 33  1  0  0  0  0
 33 61  1  0  0  0  0
 33 62  1  0  0  0  0
 33 63  1  0  0  0  0
 34 35  1  0  0  0  0
 35 64  1  0  0  0  0
 35 65  1  0  0  0  0
 35 66  1  0  0  0  0
 36 37  2  0  0  0  0
 36 38  1  0  0  0  0
 38 39  1  0  0  0  0
 39 67  1  0  0  0  0
 39 68  1  0  0  0  0
 39 69  1  0  0  0  0
M  CHG  1   7   1
M  END
$$$$
CHEMBL189520
  -OEChem-07121202283D

 56 59  0     1  0  0  0  0  0999 V2000
    5.8807    2.9080   -1.2087 C   0  0  0  0  0  0  0  0  0  0  0  0
    5.7881    1.7115   -1.8947 C   0  0  0  0  0  0  0  0  0  0  0  0
    5.0009    0.6893   -1.3983 C   0  0  0  0  0  0  0  0  0  0  0  0
    4.3066    0.8636   -0.2157 C   0  0  0  0  0  0  0  0  0  0  0  0
    4.3999    2.0599    0.4707 C   0  0  0  0  0  0  0  0  0  0  0  0
    5.1860    3.0825   -0.0264 C   0  0  0  0  0  0  0  0  0  0  0  0
    3.4476   -0.2503    0.3249 C   0  0  0  0  0  0  0  0  0  0  0  0
    4.2443   -1.0553    1.3536 C   0  0  2  0  0  0  0  0  0  0  0  0
    5.3921   -1.7505    0.6679 C   0  0  0  0  0  0  0  0  0  0  0  0
    5.2303   -2.9500    0.0569 C   0  0  0  0  0  0  0  0  0  0  0  0
    6.8854   -3.2425   -0.5456 S   0  0  0  0  0  0  0  0  0  0  0  0
    7.5967   -1.8314    0.0337 C   0  0  0  0  0  0  0  0  0  0  0  0
    6.5985   -1.2160    0.6305 N   0  0  0  0  0  0  0  0  0  0  0  0
    8.9156   -1.4152   -0.0922 N   0  0  0  0  0  0  0  0  0  0  0  0
    9.8051   -2.1846   -0.7505 C   0  0  0  0  0  0  0  0  0  0  0  0
    9.4530   -3.2425   -1.2339 O   0  0  0  0  0  0  0  0  0  0  0  0
   11.2117   -1.7406   -0.8849 C   0  0  0  0  0  0  0  0  0  0  0  0
   12.1252   -2.5378   -1.5716 C   0  0  0  0  0  0  0  0  0  0  0  0
   13.4376   -2.1089   -1.6893 C   0  0  0  0  0  0  0  0  0  0  0  0
   13.7913   -0.8972   -1.1161 C   0  0  0  0  0  0  0  0  0  0  0  0
   12.8305   -0.1559   -0.4474 C   0  0  0  0  0  0  0  0  0  0  0  0
   11.5904   -0.5841   -0.3548 N   0  0  0  0  0  0  0  0  0  0  0  0
   13.2104    1.1617    0.1777 C   0  0  0  0  0  0  0  0  0  0  0  0
   14.5969    1.4172   -0.0552 O   0  0  0  0  0  0  0  0  0  0  0  0
   15.1039    2.5739    0.4468 C   0  0  0  0  0  0  0  0  0  0  0  0
   14.2851    3.4422    1.1541 C   0  0  0  0  0  0  0  0  0  0  0  0
   14.8030    4.6171    1.6637 C   0  0  0  0  0  0  0  0  0  0  0  0
   16.1361    4.9282    1.4691 C   0  0  0  0  0  0  0  0  0  0  0  0
   16.9541    4.0647    0.7642 C   0  0  0  0  0  0  0  0  0  0  0  0
   16.4425    2.8856    0.2578 C   0  0  0  0  0  0  0  0  0  0  0  0
    3.3454   -2.0818    1.9936 C   0  0  0  0  0  0  0  0  0  0  0  0
    2.4272   -2.5613    1.3628 O   0  0  0  0  0  0  0  0  0  0  0  0
    3.5620   -2.4670    3.2668 N   0  0  0  0  0  0  0  0  0  0  0  0
    2.7175   -3.4315    3.8681 O   0  0  0  0  0  0  0  0  0  0  0  0
    6.4993    3.7050   -1.5942 H   0  0  0  0  0  0  0  0  0  0  0  0
    6.3305    1.5753   -2.8186 H   0  0  0  0  0  0  0  0  0  0  0  0
    4.9280   -0.2453   -1.9346 H   0  0  0  0  0  0  0  0  0  0  0  0
    3.8572    2.1961    1.3945 H   0  0  0  0  0  0  0  0  0  0  0  0
    5.2586    4.0172    0.5097 H   0  0  0  0  0  0  0  0  0  0  0  0
    2.5622    0.1716    0.8004 H   0  0  0  0  0  0  0  0  0  0  0  0
    3.1442   -0.9046   -0.4924 H   0  0  0  0  0  0  0  0  0  0  0  0
    4.6317   -0.3836    2.1197 H   0  0  0  0  0  0  0  0  0  0  0  0
    4.3445   -3.5603   -0.0389 H   0  0  0  0  0  0  0  0  0  0  0  0
    9.1966   -0.5707    0.2936 H   0  0  0  0  0  0  0  0  0  0  0  0
   11.8149   -3.4768   -2.0056 H   0  0  0  0  0  0  0  0  0  0  0  0
   14.1684   -2.7052   -2.2154 H   0  0  0  0  0  0  0  0  0  0  0  0
   14.8060   -0.5347   -1.1897 H   0  0  0  0  0  0  0  0  0  0  0  0
   12.6144    1.9594   -0.2656 H   0  0  0  0  0  0  0  0  0  0  0  0
   13.0235    1.1219    1.2509 H   0  0  0  0  0  0  0  0  0  0  0  0
   13.2436    3.2000    1.3058 H   0  0  0  0  0  0  0  0  0  0  0  0
   14.1660    5.2934    2.2144 H   0  0  0  0  0  0  0  0  0  0  0  0
   16.5390    5.8474    1.8680 H   0  0  0  0  0  0  0  0  0  0  0  0
   17.9950    4.3100    0.6131 H   0  0  0  0  0  0  0  0  0  0  0  0
   17.0829    2.2093   -0.2890 H   0  0  0  0  0  0  0  0  0  0  0  0
    4.2964   -2.0835    3.7713 H   0  0  0  0  0  0  0  0  0  0  0  0
    2.9510   -3.6436    4.7822 H   0  0  0  0  0  0  0  0  0  0  0  0
  1  6  2  0  0  0  0
  1  2  1  0  0  0  0
  1 35  1  0  0  0  0
  2  3  2  0  0  0  0
  2 36  1  0  0  0  0
  3  4  1  0  0  0  0
  3 37  1  0  0  0  0
  4  5  2  0  0  0  0
  4  7  1  0  0  0  0
  5  6  1  0  0  0  0
  5 38  1  0  0  0  0
  6 39  1  0  0  0  0
  7  8  1  0  0  0  0
  7 40  1  0  0  0  0
  7 41  1  0  0  0  0
  8  9  1  0  0  0  0
  8 31  1  0  0  0  0
  8 42  1  0  0  0  0
  9 13  1  0  0  0  0
  9 10  2  0  0  0  0
 10 11  1  0  0  0  0
 10 43  1  0  0  0  0
 11 12  1  0  0  0  0
 12 13  2  0  0  0  0
 12 14  1  0  0  0  0
 14 15  1  0  0  0  0
 14 44  1  0  0  0  0
 15 16  2  0  0  0  0
 15 17  1  0  0  0  0
 17 22  2  0  0  0  0
 17 18  1  0  0  0  0
 18 19  2  0  0  0  0
 18 45  1  0  0  0  0
 19 20  1  0  0  0  0
 19 46  1  0  0  0  0
 20 21  2  0  0  0  0
 20 47  1  0  0  0  0
 21 22  1  0  0  0  0
 21 23  1  0  0  0  0
 23 24  1  0  0  0  0
 23 48  1  0  0  0  0
 23 49  1  0  0  0  0
 24 25  1  0  0  0  0
 25 30  2  0  0  0  0
 25 26  1  0  0  0  0
 26 27  2  0  0  0  0
 26 50  1  0  0  0  0
 27 28  1  0  0  0  0
 27 51  1  0  0  0  0
 28 29  2  0  0  0  0
 28 52  1  0  0  0  0
 29 30  1  0  0  0  0
 29 53  1  0  0  0  0
 30 54  1  0  0  0  0
 31 32  2  0  0  0  0
 31 33  1  0  0  0  0
 33 34  1  0  0  0  0
 33 55  1  0  0  0  0
 34 56  1  0  0  0  0
M  END
$$$$
CHEMBL189520
  -OEChem-07121202283D

 56 59  0     1  0  0  0  0  0999 V2000
    2.1833   -4.6958   -1.2822 C   0  0  0  0  0  0  0  0  0  0  0  0
    1.5762   -4.3338   -0.0942 C   0  0  0  0  0  0  0  0  0  0  0  0
    1.8159   -3.0870    0.4526 C   0  0  0  0  0  0  0  0  0  0  0  0
    2.6629   -2.2024   -0.1883 C   0  0  0  0  0  0  0  0  0  0  0  0
    3.2707   -2.5647   -1.3758 C   0  0  0  0  0  0  0  0  0  0  0  0
    3.0300   -3.8109   -1.9234 C   0  0  0  0  0  0  0  0  0  0  0  0
    2.9234   -0.8428    0.4073 C   0  0  0  0  0  0  0  0  0  0  0  0
    4.0524   -0.9440    1.4350 C   0  0  1  0  0  0  0  0  0  0  0  0
    5.3369   -1.3075    0.7359 C   0  0  0  0  0  0  0  0  0  0  0  0
    6.1301   -0.3617    0.1750 C   0  0  0  0  0  0  0  0  0  0  0  0
    7.4500   -1.3751   -0.4719 S   0  0  0  0  0  0  0  0  0  0  0  0
    6.8634   -2.8702    0.0310 C   0  0  0  0  0  0  0  0  0  0  0  0
    5.7428   -2.5605    0.6471 N   0  0  0  0  0  0  0  0  0  0  0  0
    7.4277   -4.1255   -0.1545 N   0  0  0  0  0  0  0  0  0  0  0  0
    8.5972   -4.2479   -0.8130 C   0  0  0  0  0  0  0  0  0  0  0  0
    9.1580   -3.2598   -1.2444 O   0  0  0  0  0  0  0  0  0  0  0  0
    9.1991   -5.5867   -1.0109 C   0  0  0  0  0  0  0  0  0  0  0  0
   10.4113   -5.7061   -1.6875 C   0  0  0  0  0  0  0  0  0  0  0  0
   10.9622   -6.9653   -1.8644 C   0  0  0  0  0  0  0  0  0  0  0  0
   10.2815   -8.0619   -1.3584 C   0  0  0  0  0  0  0  0  0  0  0  0
    9.0800   -7.8692   -0.6959 C   0  0  0  0  0  0  0  0  0  0  0  0
    8.5820   -6.6622   -0.5374 N   0  0  0  0  0  0  0  0  0  0  0  0
    8.3363   -9.0583   -0.1445 C   0  0  0  0  0  0  0  0  0  0  0  0
    9.0673  -10.2522   -0.4315 O   0  0  0  0  0  0  0  0  0  0  0  0
    8.5300  -11.4234    0.0004 C   0  0  0  0  0  0  0  0  0  0  0  0
    7.3213  -11.4241    0.6813 C   0  0  0  0  0  0  0  0  0  0  0  0
    6.7770  -12.6160    1.1189 C   0  0  0  0  0  0  0  0  0  0  0  0
    7.4362  -13.8076    0.8792 C   0  0  0  0  0  0  0  0  0  0  0  0
    8.6412  -13.8095    0.2013 C   0  0  0  0  0  0  0  0  0  0  0  0
    9.1866  -12.6209   -0.2438 C   0  0  0  0  0  0  0  0  0  0  0  0
    4.2176    0.3819    2.1319 C   0  0  0  0  0  0  0  0  0  0  0  0
    3.9880    1.4130    1.5360 O   0  0  0  0  0  0  0  0  0  0  0  0
    4.6205    0.4220    3.4174 N   0  0  0  0  0  0  0  0  0  0  0  0
    4.7757    1.6678    4.0722 O   0  0  0  0  0  0  0  0  0  0  0  0
    1.9996   -5.6715   -1.7070 H   0  0  0  0  0  0  0  0  0  0  0  0
    0.9144   -5.0249    0.4066 H   0  0  0  0  0  0  0  0  0  0  0  0
    1.3410   -2.8039    1.3804 H   0  0  0  0  0  0  0  0  0  0  0  0
    3.9322   -1.8734   -1.8768 H   0  0  0  0  0  0  0  0  0  0  0  0
    3.5045   -4.0939   -2.8513 H   0  0  0  0  0  0  0  0  0  0  0  0
    3.2121   -0.1494   -0.3825 H   0  0  0  0  0  0  0  0  0  0  0  0
    2.0187   -0.4808    0.8958 H   0  0  0  0  0  0  0  0  0  0  0  0
    3.8080   -1.7121    2.1687 H   0  0  0  0  0  0  0  0  0  0  0  0
    5.9994    0.7095    0.1315 H   0  0  0  0  0  0  0  0  0  0  0  0
    6.9801   -4.9142    0.1898 H   0  0  0  0  0  0  0  0  0  0  0  0
   10.9142   -4.8297   -2.0689 H   0  0  0  0  0  0  0  0  0  0  0  0
   11.9003   -7.0895   -2.3850 H   0  0  0  0  0  0  0  0  0  0  0  0
   10.6837   -9.0569   -1.4798 H   0  0  0  0  0  0  0  0  0  0  0  0
    8.2266   -8.9499    0.9345 H   0  0  0  0  0  0  0  0  0  0  0  0
    7.3505   -9.1161   -0.6060 H   0  0  0  0  0  0  0  0  0  0  0  0
    6.8064  -10.4936    0.8694 H   0  0  0  0  0  0  0  0  0  0  0  0
    5.8361  -12.6171    1.6490 H   0  0  0  0  0  0  0  0  0  0  0  0
    7.0092  -14.7383    1.2225 H   0  0  0  0  0  0  0  0  0  0  0  0
    9.1543  -14.7415    0.0156 H   0  0  0  0  0  0  0  0  0  0  0  0
   10.1257  -12.6233   -0.7772 H   0  0  0  0  0  0  0  0  0  0  0  0
    4.8041   -0.4027    3.8940 H   0  0  0  0  0  0  0  0  0  0  0  0
    5.0679    1.5954    4.9912 H   0  0  0  0  0  0  0  0  0  0  0  0
  1  6  2  0  0  0  0
  1  2  1  0  0  0  0
  1 35  1  0  0  0  0
  2  3  2  0  0  0  0
  2 36  1  0  0  0  0
  3  4  1  0  0  0  0
  3 37  1  0  0  0  0
  4  5  2  0  0  0  0
  4  7  1  0  0  0  0
  5  6  1  0  0  0  0
  5 38  1  0  0  0  0
  6 39  1  0  0  0  0
  7  8  1  0  0  0  0
  7 40  1  0  0  0  0
  7 41  1  0  0  0  0
  8  9  1  0  0  0  0
  8 31  1  0  0  0  0
  8 42  1  0  0  0  0
  9 13  1  0  0  0  0
  9 10  2  0  0  0  0
 10 11  1  0  0  0  0
 10 43  1  0  0  0  0
 11 12  1  0  0  0  0
 12 13  2  0  0  0  0
 12 14  1  0  0  0  0
 14 15  1  0  0  0  0
 14 44  1  0  0  0  0
 15 16  2  0  0  0  0
 15 17  1  0  0  0  0
 17 22  2  0  0  0  0
 17 18  1  0  0  0  0
 18 19  2  0  0  0  0
 18 45  1  0  0  0  0
 19 20  1  0  0  0  0
 19 46  1  0  0  0  0
 20 21  2  0  0  0  0
 20 47  1  0  0  0  0
 21 22  1  0  0  0  0
 21 23  1  0  0  0  0
 23 24  1  0  0  0  0
 23 48  1  0  0  0  0
 23 49  1  0  0  0  0
 24 25  1  0  0  0  0
 25 30  2  0  0  0  0
 25 26  1  0  0  0  0
 26 27  2  0  0  0  0
 26 50  1  0  0  0  0
 27 28  1  0  0  0  0
 27 51  1  0  0  0  0
 28 29  2  0  0  0  0
 28 52  1  0  0  0  0
 29 30  1  0  0  0  0
 29 53  1  0  0  0  0
 30 54  1  0  0  0  0
 31 32  2  0  0  0  0
 31 33  1  0  0  0  0
 33 34  1  0  0  0  0
 33 55  1  0  0  0  0
 34 56  1  0  0  0  0
M  END
$$$$
CHEMBL359944
  -OEChem-07121202283D

 44 47  0     0  0  0  0  0  0999 V2000
   -0.0187    1.5258    0.0104 C   0  0  0  0  0  0  0  0  0  0  0  0
    0.0021   -0.0041    0.0020 C   0  0  0  0  0  0  0  0  0  0  0  0
   -1.3386   -0.4987    0.0122 O   0  0  0  0  0  0  0  0  0  0  0  0
   -1.4981   -1.8465    0.0064 C   0  0  0  0  0  0  0  0  0  0  0  0
   -0.3894   -2.6787   -0.0028 C   0  0  0  0  0  0  0  0  0  0  0  0
   -0.5532   -4.0502   -0.0086 C   0  0  0  0  0  0  0  0  0  0  0  0
   -1.8226   -4.6042   -0.0052 C   0  0  0  0  0  0  0  0  0  0  0  0
   -2.9358   -3.7914    0.0044 C   0  0  0  0  0  0  0  0  0  0  0  0
   -2.7842   -2.4029    0.0157 C   0  0  0  0  0  0  0  0  0  0  0  0
   -3.9715   -1.5270    0.0318 C   0  0  0  0  0  0  0  0  0  0  0  0
   -3.8031   -0.2232    0.0373 N   0  0  0  0  0  0  0  0  0  0  0  0
   -4.8487    0.6096    0.0518 C   0  0  0  0  0  0  0  0  0  0  0  0
   -6.1493    0.0914    0.0614 C   0  0  0  0  0  0  0  0  0  0  0  0
   -6.3193   -1.3151    0.0558 C   0  0  0  0  0  0  0  0  0  0  0  0
   -5.2151   -2.0943    0.0351 N   0  0  0  0  0  0  0  0  0  0  0  0
   -7.4333   -1.8100    0.0642 O   0  0  0  0  0  0  0  0  0  0  0  0
   -7.0008    1.1435    0.0752 N   0  0  0  0  0  0  0  0  0  0  0  0
   -6.3176    2.2516    0.0747 C   0  0  0  0  0  0  0  0  0  0  0  0
   -4.9833    1.9721    0.0604 N   0  0  0  0  0  0  0  0  0  0  0  0
   -3.8930    2.9506    0.0557 C   0  0  0  0  0  0  0  0  0  0  0  0
   -4.0133    3.8817    1.2798 C   0  0  0  0  0  0  0  0  0  0  0  0
   -3.5731    5.2680    0.7472 C   0  0  0  0  0  0  0  0  0  0  0  0
   -4.1737    5.2922   -0.6803 C   0  0  0  0  0  0  0  0  0  0  0  0
   -3.9950    3.8474   -1.1905 C   0  0  0  0  0  0  0  0  0  0  0  0
    1.0039    1.9031    0.0027 H   0  0  0  0  0  0  0  0  0  0  0  0
   -0.5459    1.8868   -0.8726 H   0  0  0  0  0  0  0  0  0  0  0  0
   -0.5289    1.8773    0.9072 H   0  0  0  0  0  0  0  0  0  0  0  0
    0.5123   -0.3556   -0.8948 H   0  0  0  0  0  0  0  0  0  0  0  0
    0.5293   -0.3651    0.8851 H   0  0  0  0  0  0  0  0  0  0  0  0
    0.6036   -2.2542   -0.0059 H   0  0  0  0  0  0  0  0  0  0  0  0
    0.3137   -4.6944   -0.0162 H   0  0  0  0  0  0  0  0  0  0  0  0
   -1.9408   -5.6777   -0.0105 H   0  0  0  0  0  0  0  0  0  0  0  0
   -3.9238   -4.2275    0.0067 H   0  0  0  0  0  0  0  0  0  0  0  0
   -5.3055   -3.0601    0.0265 H   0  0  0  0  0  0  0  0  0  0  0  0
   -6.7440    3.2438    0.0838 H   0  0  0  0  0  0  0  0  0  0  0  0
   -2.9313    2.4377    0.0690 H   0  0  0  0  0  0  0  0  0  0  0  0
   -5.0443    3.9181    1.6316 H   0  0  0  0  0  0  0  0  0  0  0  0
   -3.3484    3.5509    2.0776 H   0  0  0  0  0  0  0  0  0  0  0  0
   -3.9939    6.0675    1.3570 H   0  0  0  0  0  0  0  0  0  0  0  0
   -2.4861    5.3402    0.7103 H   0  0  0  0  0  0  0  0  0  0  0  0
   -5.2306    5.5563   -0.6450 H   0  0  0  0  0  0  0  0  0  0  0  0
   -3.6259    5.9907   -1.3128 H   0  0  0  0  0  0  0  0  0  0  0  0
   -3.0824    3.7704   -1.7816 H   0  0  0  0  0  0  0  0  0  0  0  0
   -4.8557    3.5546   -1.7918 H   0  0  0  0  0  0  0  0  0  0  0  0
  1  2  1  0  0  0  0
  1 25  1  0  0  0  0
  1 26  1  0  0  0  0
  1 27  1  0  0  0  0
  2  3  1  0  0  0  0
  2 28  1  0  0  0  0
  2 29  1  0  0  0  0
  3  4  1  0  0  0  0
  4  9  2  0  0  0  0
  4  5  1  0  0  0  0
  5  6  2  0  0  0  0
  5 30  1  0  0  0  0
  6  7  1  0  0  0  0
  6 31  1  0  0  0  0
  7  8  2  0  0  0  0
  7 32  1  0  0  0  0
  8  9  1  0  0  0  0
  8 33  1  0  0  0  0
  9 10  1  0  0  0  0
 10 11  2  0  0  0  0
 10 15  1  0  0  0  0
 11 12  1  0  0  0  0
 12 19  1  0  0  0  0
 12 13  2  0  0  0  0
 13 14  1  0  0  0  0
 13 17  1  0  0  0  0
 14 15  1  0  0  0  0
 14 16  2  0  0  0  0
 15 34  1  0  0  0  0
 17 18  2  0  0  0  0
 18 35  1  0  0  0  0
 18 19  1  0  0  0  0
 19 20  1  0  0  0  0
 20 24  1  0  0  0  0
 20 21  1  0  0  0  0
 20 36  1  0  0  0  0
 21 22  1  0  0  0  0
 21 37  1  0  0  0  0
 21 38  1  0  0  0  0
 22 23  1  0  0  0  0
 22 39  1  0  0  0  0
 22 40  1  0  0  0  0
 23 24  1  0  0  0  0
 23 41  1  0  0  0  0
 23 42  1  0  0  0  0
 24 43  1  0  0  0  0
 24 44  1  0  0  0  0
M  END
$$$$
CHEMBL42570
  -OEChem-07121202283D

 36 38  0     0  0  0  0  0  0999 V2000
   -0.0187    1.5258    0.0104 C   0  0  0  0  0  0  0  0  0  0  0  0
    0.0021   -0.0041    0.0020 C   0  0  0  0  0  0  0  0  0  0  0  0
    0.7182   -0.4975   -1.2568 C   0  0  0  0  0  0  0  0  0  0  0  0
    0.7376   -1.9263   -1.2646 O   0  0  0  0  0  0  0  0  0  0  0  0
    1.3405   -2.5286   -2.3209 C   0  0  0  0  0  0  0  0  0  0  0  0
    1.9080   -1.7631   -3.3280 C   0  0  0  0  0  0  0  0  0  0  0  0
    2.5216   -2.3772   -4.4022 C   0  0  0  0  0  0  0  0  0  0  0  0
    2.5752   -3.7589   -4.4823 C   0  0  0  0  0  0  0  0  0  0  0  0
    2.0157   -4.5350   -3.4900 C   0  0  0  0  0  0  0  0  0  0  0  0
    1.3972   -3.9266   -2.3955 C   0  0  0  0  0  0  0  0  0  0  0  0
    0.8015   -4.7515   -1.3266 C   0  0  0  0  0  0  0  0  0  0  0  0
    0.2207   -4.1446   -0.3214 N   0  0  0  0  0  0  0  0  0  0  0  0
   -0.3432   -4.8341    0.6872 C   0  0  0  0  0  0  0  0  0  0  0  0
   -0.9682   -4.2023    1.7683 C   0  0  0  0  0  0  0  0  0  0  0  0
   -1.5051   -4.9202    2.7303 N   0  0  0  0  0  0  0  0  0  0  0  0
   -1.4868   -6.2418    2.7320 C   0  0  0  0  0  0  0  0  0  0  0  0
   -0.8943   -6.9543    1.7089 C   0  0  0  0  0  0  0  0  0  0  0  0
   -0.3077   -6.2476    0.6608 C   0  0  0  0  0  0  0  0  0  0  0  0
    0.3492   -6.9089   -0.4757 C   0  0  0  0  0  0  0  0  0  0  0  0
    0.8778   -6.1134   -1.4364 N   0  0  0  0  0  0  0  0  0  0  0  0
    0.4112   -8.1218   -0.5530 O   0  0  0  0  0  0  0  0  0  0  0  0
    1.0039    1.9031    0.0027 H   0  0  0  0  0  0  0  0  0  0  0  0
   -0.5459    1.8868   -0.8726 H   0  0  0  0  0  0  0  0  0  0  0  0
   -0.5289    1.8773    0.9072 H   0  0  0  0  0  0  0  0  0  0  0  0
    0.5293   -0.3651    0.8851 H   0  0  0  0  0  0  0  0  0  0  0  0
   -1.0205   -0.3814    0.0098 H   0  0  0  0  0  0  0  0  0  0  0  0
    0.1910   -0.1364   -2.1398 H   0  0  0  0  0  0  0  0  0  0  0  0
    1.7408   -0.1202   -1.2645 H   0  0  0  0  0  0  0  0  0  0  0  0
    1.8698   -0.6852   -3.2727 H   0  0  0  0  0  0  0  0  0  0  0  0
    2.9619   -1.7765   -5.1844 H   0  0  0  0  0  0  0  0  0  0  0  0
    3.0572   -4.2302   -5.3260 H   0  0  0  0  0  0  0  0  0  0  0  0
    2.0594   -5.6121   -3.5566 H   0  0  0  0  0  0  0  0  0  0  0  0
   -1.0092   -3.1240    1.8128 H   0  0  0  0  0  0  0  0  0  0  0  0
   -1.9449   -6.7756    3.5515 H   0  0  0  0  0  0  0  0  0  0  0  0
   -0.8853   -8.0342    1.7206 H   0  0  0  0  0  0  0  0  0  0  0  0
    1.3165   -6.5114   -2.2045 H   0  0  0  0  0  0  0  0  0  0  0  0
  1  2  1  0  0  0  0
  1 22  1  0  0  0  0
  1 23  1  0  0  0  0
  1 24  1  0  0  0  0
  2  3  1  0  0  0  0
  2 25  1  0  0  0  0
  2 26  1  0  0  0  0
  3  4  1  0  0  0  0
  3 27  1  0  0  0  0
  3 28  1  0  0  0  0
  4  5  1  0  0  0  0
  5 10  2  0  0  0  0
  5  6  1  0  0  0  0
  6  7  2  0  0  0  0
  6 29  1  0  0  0  0
  7  8  1  0  0  0  0
  7 30  1  0  0  0  0
  8  9  2  0  0  0  0
  8 31  1  0  0  0  0
  9 10  1  0  0  0  0
  9 32  1  0  0  0  0
 10 11  1  0  0  0  0
 11 20  1  0  0  0  0
 11 12  2  0  0  0  0
 12 13  1  0  0  0  0
 13 18  2  0  0  0  0
 13 14  1  0  0  0  0
 14 15  2  0  0  0  0
 14 33  1  0  0  0  0
 15 16  1  0  0  0  0
 16 17  2  0  0  0  0
 16 34  1  0  0  0  0
 17 18  1  0  0  0  0
 17 35  1  0  0  0  0
 18 19  1  0  0  0  0
 19 20  1  0  0  0  0
 19 21  2  0  0  0  0
 20 36  1  0  0  0  0
M  END
$$$$
CHEMBL42570
  -OEChem-07121202283D

 36 38  0     0  0  0  0  0  0999 V2000
   -0.0187    1.5258    0.0104 C   0  0  0  0  0  0  0  0  0  0  0  0
    0.0021   -0.0041    0.0020 C   0  0  0  0  0  0  0  0  0  0  0  0
    0.7421   -0.5109    1.2415 C   0  0  0  0  0  0  0  0  0  0  0  0
    0.7614   -1.9398    1.2337 O   0  0  0  0  0  0  0  0  0  0  0  0
    1.3841   -2.5530    2.2714 C   0  0  0  0  0  0  0  0  0  0  0  0
    1.9610   -1.7985    3.2818 C   0  0  0  0  0  0  0  0  0  0  0  0
    2.5949   -2.4239    4.3371 C   0  0  0  0  0  0  0  0  0  0  0  0
    2.6596   -3.8067    4.3960 C   0  0  0  0  0  0  0  0  0  0  0  0
    2.0920   -4.5723    3.4011 C   0  0  0  0  0  0  0  0  0  0  0  0
    1.4423   -3.9526    2.3301 C   0  0  0  0  0  0  0  0  0  0  0  0
    0.8269   -4.7656    1.2653 C   0  0  0  0  0  0  0  0  0  0  0  0
    0.8996   -6.1215    1.3608 N   0  0  0  0  0  0  0  0  0  0  0  0
    0.3356   -6.9176    0.3847 C   0  0  0  0  0  0  0  0  0  0  0  0
    0.3789   -8.3053    0.4316 C   0  0  0  0  0  0  0  0  0  0  0  0
   -0.1770   -9.0163   -0.5280 N   0  0  0  0  0  0  0  0  0  0  0  0
   -0.7898   -8.4635   -1.5591 C   0  0  0  0  0  0  0  0  0  0  0  0
   -0.8815   -7.0917   -1.6877 C   0  0  0  0  0  0  0  0  0  0  0  0
   -0.3091   -6.2946   -0.6991 C   0  0  0  0  0  0  0  0  0  0  0  0
   -0.3489   -4.8215   -0.7363 C   0  0  0  0  0  0  0  0  0  0  0  0
    0.2284   -4.1460    0.2697 N   0  0  0  0  0  0  0  0  0  0  0  0
   -0.8949   -4.2328   -1.6537 O   0  0  0  0  0  0  0  0  0  0  0  0
    1.0039    1.9031    0.0027 H   0  0  0  0  0  0  0  0  0  0  0  0
   -0.5459    1.8868   -0.8726 H   0  0  0  0  0  0  0  0  0  0  0  0
   -0.5289    1.8773    0.9072 H   0  0  0  0  0  0  0  0  0  0  0  0
   -1.0205   -0.3814    0.0098 H   0  0  0  0  0  0  0  0  0  0  0  0
    0.5123   -0.3556   -0.8948 H   0  0  0  0  0  0  0  0  0  0  0  0
    1.7647   -0.1336    1.2338 H   0  0  0  0  0  0  0  0  0  0  0  0
    0.2319   -0.1594    2.1383 H   0  0  0  0  0  0  0  0  0  0  0  0
    1.9148   -0.7201    3.2431 H   0  0  0  0  0  0  0  0  0  0  0  0
    3.0432   -1.8317    5.1211 H   0  0  0  0  0  0  0  0  0  0  0  0
    3.1576   -4.2866    5.2256 H   0  0  0  0  0  0  0  0  0  0  0  0
    2.1456   -5.6499    3.4508 H   0  0  0  0  0  0  0  0  0  0  0  0
    0.8694   -8.8019    1.2557 H   0  0  0  0  0  0  0  0  0  0  0  0
   -1.2275   -9.0967   -2.3167 H   0  0  0  0  0  0  0  0  0  0  0  0
   -1.3841   -6.6477   -2.5342 H   0  0  0  0  0  0  0  0  0  0  0  0
    1.3495   -6.5294    2.1171 H   0  0  0  0  0  0  0  0  0  0  0  0
  1  2  1  0  0  0  0
  1 22  1  0  0  0  0
  1 23  1  0  0  0  0
  1 24  1  0  0  0  0
  2  3  1  0  0  0  0
  2 25  1  0  0  0  0
  2 26  1  0  0  0  0
  3  4  1  0  0  0  0
  3 27  1  0  0  0  0
  3 28  1  0  0  0  0
  4  5  1  0  0  0  0
  5 10  2  0  0  0  0
  5  6  1  0  0  0  0
  6  7  2  0  0  0  0
  6 29  1  0  0  0  0
  7  8  1  0  0  0  0
  7 30  1  0  0  0  0
  8  9  2  0  0  0  0
  8 31  1  0  0  0  0
  9 10  1  0  0  0  0
  9 32  1  0  0  0  0
 10 11  1  0  0  0  0
 11 20  2  0  0  0  0
 11 12  1  0  0  0  0
 12 13  1  0  0  0  0
 12 36  1  0  0  0  0
 13 18  2  0  0  0  0
 13 14  1  0  0  0  0
 14 15  2  0  0  0  0
 14 33  1  0  0  0  0
 15 16  1  0  0  0  0
 16 17  2  0  0  0  0
 16 34  1  0  0  0  0
 17 18  1  0  0  0  0
 17 35  1  0  0  0  0
 18 19  1  0  0  0  0
 19 20  1  0  0  0  0
 19 21  2  0  0  0  0
M  END
$$$$
CHEMBL42570
  -OEChem-07121202283D

 35 37  0     0  0  0  0  0  0999 V2000
   -0.0187    1.5258    0.0104 C   0  0  0  0  0  0  0  0  0  0  0  0
    0.0021   -0.0041    0.0020 C   0  0  0  0  0  0  0  0  0  0  0  0
    0.7421   -0.5109    1.2415 C   0  0  0  0  0  0  0  0  0  0  0  0
    0.7614   -1.9398    1.2337 O   0  0  0  0  0  0  0  0  0  0  0  0
    1.3846   -2.5535    2.2721 C   0  0  0  0  0  0  0  0  0  0  0  0
    1.9611   -1.7987    3.2821 C   0  0  0  0  0  0  0  0  0  0  0  0
    2.5948   -2.4243    4.3380 C   0  0  0  0  0  0  0  0  0  0  0  0
    2.6582   -3.8062    4.3957 C   0  0  0  0  0  0  0  0  0  0  0  0
    2.0892   -4.5703    3.3984 C   0  0  0  0  0  0  0  0  0  0  0  0
    1.4423   -3.9501    2.3302 C   0  0  0  0  0  0  0  0  0  0  0  0
    0.8242   -4.7657    1.2595 C   0  0  0  0  0  0  0  0  0  0  0  0
    0.8924   -6.0820    1.3482 N   0  0  0  0  0  0  0  0  0  0  0  0
    0.3454   -6.8502    0.4007 C   0  0  0  0  0  0  0  0  0  0  0  0
    0.3868   -8.2525    0.4430 C   0  0  0  0  0  0  0  0  0  0  0  0
   -0.1699   -8.9515   -0.5191 N   0  0  0  0  0  0  0  0  0  0  0  0
   -0.7826   -8.3915   -1.5510 C   0  0  0  0  0  0  0  0  0  0  0  0
   -0.8758   -7.0356   -1.6833 C   0  0  0  0  0  0  0  0  0  0  0  0
   -0.3050   -6.2254   -0.6942 C   0  0  0  0  0  0  0  0  0  0  0  0
   -0.3474   -4.8125   -0.7379 C   0  0  0  0  0  0  0  0  0  0  0  0
    0.2183   -4.1402    0.2505 N   0  0  0  0  0  0  0  0  0  0  0  0
   -0.9551   -4.1666   -1.7594 O   0  5  0  0  0  0  0  0  0  0  0  0
    1.0039    1.9031    0.0027 H   0  0  0  0  0  0  0  0  0  0  0  0
   -0.5459    1.8868   -0.8726 H   0  0  0  0  0  0  0  0  0  0  0  0
   -0.5289    1.8773    0.9072 H   0  0  0  0  0  0  0  0  0  0  0  0
   -1.0205   -0.3814    0.0098 H   0  0  0  0  0  0  0  0  0  0  0  0
    0.5123   -0.3556   -0.8948 H   0  0  0  0  0  0  0  0  0  0  0  0
    1.7647   -0.1336    1.2338 H   0  0  0  0  0  0  0  0  0  0  0  0
    0.2319   -0.1594    2.1383 H   0  0  0  0  0  0  0  0  0  0  0  0
    1.9151   -0.7203    3.2430 H   0  0  0  0  0  0  0  0  0  0  0  0
    3.0432   -1.8326    5.1223 H   0  0  0  0  0  0  0  0  0  0  0  0
    3.1555   -4.2876    5.2248 H   0  0  0  0  0  0  0  0  0  0  0  0
    2.1415   -5.6480    3.4467 H   0  0  0  0  0  0  0  0  0  0  0  0
    0.8756   -8.7552    1.2645 H   0  0  0  0  0  0  0  0  0  0  0  0
   -1.2201   -9.0245   -2.3088 H   0  0  0  0  0  0  0  0  0  0  0  0
   -1.3796   -6.5975   -2.5323 H   0  0  0  0  0  0  0  0  0  0  0  0
  1  2  1  0  0  0  0
  1 22  1  0  0  0  0
  1 23  1  0  0  0  0
  1 24  1  0  0  0  0
  2  3  1  0  0  0  0
  2 25  1  0  0  0  0
  2 26  1  0  0  0  0
  3  4  1  0  0  0  0
  3 27  1  0  0  0  0
  3 28  1  0  0  0  0
  4  5  1  0  0  0  0
  5 10  2  0  0  0  0
  5  6  1  0  0  0  0
  6  7  2  0  0  0  0
  6 29  1  0  0  0  0
  7  8  1  0  0  0  0
  7 30  1  0  0  0  0
  8  9  2  0  0  0  0
  8 31  1  0  0  0  0
  9 10  1  0  0  0  0
  9 32  1  0  0  0  0
 10 11  1  0  0  0  0
 11 20  2  0  0  0  0
 11 12  1  0  0  0  0
 12 13  2  0  0  0  0
 13 18  1  0  0  0  0
 13 14  1  0  0  0  0
 14 15  2  0  0  0  0
 14 33  1  0  0  0  0
 15 16  1  0  0  0  0
 16 17  2  0  0  0  0
 16 34  1  0  0  0  0
 17 18  1  0  0  0  0
 17 35  1  0  0  0  0
 18 19  2  0  0  0  0
 19 20  1  0  0  0  0
 19 21  1  0  0  0  0
M  CHG  1  21  -1
M  END
$$$$
CHEMBL305617
  -OEChem-07121202283D

 52 56  0     1  0  0  0  0  0999 V2000
   -0.5187    1.4913    0.3953 C   0  0  0  0  0  0  0  0  0  0  0  0
   -0.4130    0.0314    0.3339 N   0  0  0  0  0  0  0  0  0  0  0  0
   -0.2896   -0.5757   -0.8635 C   0  0  0  0  0  0  0  0  0  0  0  0
   -0.4317    0.0826   -1.8718 O   0  0  0  0  0  0  0  0  0  0  0  0
    0.0180   -2.0378   -0.9898 C   0  0  1  0  0  0  0  0  0  0  0  0
   -0.4673   -2.7455    0.2698 C   0  0  0  0  0  0  0  0  0  0  0  0
   -0.9956   -3.8647   -0.0495 N   0  3  0  0  0  0  0  0  0  0  0  0
   -0.9793   -4.0408   -1.5102 C   0  0  2  0  0  0  0  0  0  0  0  0
   -0.7414   -2.6861   -2.0752 N   0  0  0  0  0  0  0  0  0  0  0  0
   -2.3255   -4.5854   -1.9920 C   0  0  0  0  0  0  0  0  0  0  0  0
   -2.5622   -5.9698   -1.3851 C   0  0  0  0  0  0  0  0  0  0  0  0
   -3.9271   -6.5380   -1.8471 C   0  0  0  0  0  0  0  0  0  0  0  0
   -3.7349   -8.0660   -1.6812 C   0  0  0  0  0  0  0  0  0  0  0  0
   -2.2749   -8.3129   -2.1139 C   0  0  0  0  0  0  0  0  0  0  0  0
   -1.5293   -6.9801   -1.9256 C   0  0  0  0  0  0  0  0  0  0  0  0
   -0.3825   -2.1009    1.4770 N   0  0  0  0  0  0  0  0  0  0  0  0
   -0.4358   -0.7069    1.5114 C   0  0  0  0  0  0  0  0  0  0  0  0
   -0.5372   -0.2487    2.7163 N   0  0  0  0  0  0  0  0  0  0  0  0
   -0.5307   -1.3518    3.6763 C   0  0  0  0  0  0  0  0  0  0  0  0
   -0.1965   -2.5945    2.8362 C   0  0  0  0  0  0  0  0  0  0  0  0
    0.5170   -1.1328    4.7750 C   0  0  0  0  0  0  0  0  0  0  0  0
   -0.3050   -0.5927    5.9742 C   0  0  0  0  0  0  0  0  0  0  0  0
   -1.6255   -1.3980    5.8784 C   0  0  0  0  0  0  0  0  0  0  0  0
   -1.8890   -1.5153    4.3603 C   0  0  0  0  0  0  0  0  0  0  0  0
    0.4782    1.9247    0.4751 H   0  0  0  0  0  0  0  0  0  0  0  0
   -1.0034    1.8589   -0.5091 H   0  0  0  0  0  0  0  0  0  0  0  0
   -1.1096    1.7765    1.2658 H   0  0  0  0  0  0  0  0  0  0  0  0
    1.0895   -2.1888   -1.1208 H   0  0  0  0  0  0  0  0  0  0  0  0
   -0.1739   -4.7160   -1.7992 H   0  0  0  0  0  0  0  0  0  0  0  0
   -0.1921   -2.7379   -2.9199 H   0  0  0  0  0  0  0  0  0  0  0  0
   -3.1229   -3.9109   -1.6804 H   0  0  0  0  0  0  0  0  0  0  0  0
   -2.3184   -4.6618   -3.0793 H   0  0  0  0  0  0  0  0  0  0  0  0
   -2.5154   -5.9214   -0.2972 H   0  0  0  0  0  0  0  0  0  0  0  0
   -4.7321   -6.1781   -1.2064 H   0  0  0  0  0  0  0  0  0  0  0  0
   -4.1185   -6.2837   -2.8896 H   0  0  0  0  0  0  0  0  0  0  0  0
   -3.8791   -8.3579   -0.6409 H   0  0  0  0  0  0  0  0  0  0  0  0
   -4.4221   -8.6095   -2.3296 H   0  0  0  0  0  0  0  0  0  0  0  0
   -1.8254   -9.0839   -1.4881 H   0  0  0  0  0  0  0  0  0  0  0  0
   -2.2417   -8.6147   -3.1607 H   0  0  0  0  0  0  0  0  0  0  0  0
   -1.1342   -6.6351   -2.8811 H   0  0  0  0  0  0  0  0  0  0  0  0
   -0.7179   -7.1043   -1.2085 H   0  0  0  0  0  0  0  0  0  0  0  0
   -0.8811   -3.4154    3.0497 H   0  0  0  0  0  0  0  0  0  0  0  0
    0.8372   -2.8978    3.0025 H   0  0  0  0  0  0  0  0  0  0  0  0
    0.9999   -2.0745    5.0358 H   0  0  0  0  0  0  0  0  0  0  0  0
    1.2566   -0.3981    4.4568 H   0  0  0  0  0  0  0  0  0  0  0  0
    0.2049   -0.7983    6.9154 H   0  0  0  0  0  0  0  0  0  0  0  0
   -0.4950    0.4748    5.8623 H   0  0  0  0  0  0  0  0  0  0  0  0
   -1.5026   -2.3862    6.3217 H   0  0  0  0  0  0  0  0  0  0  0  0
   -2.4375   -0.8585    6.3659 H   0  0  0  0  0  0  0  0  0  0  0  0
   -2.5689   -0.7275    4.0362 H   0  0  0  0  0  0  0  0  0  0  0  0
   -2.3102   -2.4934    4.1278 H   0  0  0  0  0  0  0  0  0  0  0  0
   -1.3557   -4.5072    0.5817 H   0  0  0  0  0  0  0  0  0  0  0  0
  1  2  1  0  0  0  0
  1 25  1  0  0  0  0
  1 26  1  0  0  0  0
  1 27  1  0  0  0  0
  2 17  1  0  0  0  0
  2  3  1  0  0  0  0
  3  4  2  0  0  0  0
  3  5  1  0  0  0  0
  5  6  1  0  0  0  0
  5  9  1  0  0  0  0
  5 28  1  0  0  0  0
  6  7  2  0  0  0  0
  6 16  1  0  0  0  0
  7  8  1  0  0  0  0
  7 52  1  0  0  0  0
  8  9  1  0  0  0  0
  8 10  1  0  0  0  0
  8 29  1  0  0  0  0
  9 30  1  0  0  0  0
 10 11  1  0  0  0  0
 10 31  1  0  0  0  0
 10 32  1  0  0  0  0
 11 15  1  0  0  0  0
 11 12  1  0  0  0  0
 11 33  1  0  0  0  0
 12 13  1  0  0  0  0
 12 34  1  0  0  0  0
 12 35  1  0  0  0  0
 13 14  1  0  0  0  0
 13 36  1  0  0  0  0
 13 37  1  0  0  0  0
 14 15  1  0  0  0  0
 14 38  1  0  0  0  0
 14 39  1  0  0  0  0
 15 40  1  0  0  0  0
 15 41  1  0  0  0  0
 16 20  1  0  0  0  0
 16 17  1  0  0  0  0
 17 18  2  0  0  0  0
 18 19  1  0  0  0  0
 19 24  1  0  0  0  0
 19 20  1  0  0  0  0
 19 21  1  0  0  0  0
 20 42  1  0  0  0  0
 20 43  1  0  0  0  0
 21 22  1  0  0  0  0
 21 44  1  0  0  0  0
 21 45  1  0  0  0  0
 22 23  1  0  0  0  0
 22 46  1  0  0  0  0
 22 47  1  0  0  0  0
 23 24  1  0  0  0  0
 23 48  1  0  0  0  0
 23 49  1  0  0  0  0
 24 50  1  0  0  0  0
 24 51  1  0  0  0  0
M  CHG  1   7   1
M  END
$$$$
CHEMBL305617
  -OEChem-07121202283D

 52 56  0     1  0  0  0  0  0999 V2000
   -0.0178    1.4608    0.0101 C   0  0  0  0  0  0  0  0  0  0  0  0
    0.0021   -0.0041    0.0020 N   0  0  0  0  0  0  0  0  0  0  0  0
    0.0055   -0.6618   -1.1749 C   0  0  0  0  0  0  0  0  0  0  0  0
   -0.1723   -0.0347   -2.1973 O   0  0  0  0  0  0  0  0  0  0  0  0
    0.2223   -2.1430   -1.2616 C   0  0  1  0  0  0  0  0  0  0  0  0
   -0.2099   -2.7739    0.0570 C   0  0  0  0  0  0  0  0  0  0  0  0
   -0.8208   -3.8715   -0.1781 N   0  3  0  0  0  0  0  0  0  0  0  0
   -0.9188   -4.1029   -1.6279 C   0  0  1  0  0  0  0  0  0  0  0  0
   -0.6472   -2.7865   -2.2638 N   0  0  0  0  0  0  0  0  0  0  0  0
    0.1255   -5.1295   -2.0711 C   0  0  0  0  0  0  0  0  0  0  0  0
   -0.2081   -6.4923   -1.4610 C   0  0  0  0  0  0  0  0  0  0  0  0
   -0.0132   -6.4485    0.0687 C   0  0  0  0  0  0  0  0  0  0  0  0
    0.5642   -7.8426    0.4181 C   0  0  0  0  0  0  0  0  0  0  0  0
    1.5100   -8.1296   -0.7745 C   0  0  0  0  0  0  0  0  0  0  0  0
    0.7603   -7.5612   -1.9971 C   0  0  0  0  0  0  0  0  0  0  0  0
   -0.0031   -2.0905    1.2275 N   0  0  0  0  0  0  0  0  0  0  0  0
    0.0229   -0.6952    1.2076 C   0  0  0  0  0  0  0  0  0  0  0  0
    0.0324   -0.1868    2.3974 N   0  0  0  0  0  0  0  0  0  0  0  0
    0.0490   -1.2524    3.3947 C   0  0  0  0  0  0  0  0  0  0  0  0
    0.2522   -2.5429    2.5904 C   0  0  0  0  0  0  0  0  0  0  0  0
   -1.2629   -1.3105    4.1927 C   0  0  0  0  0  0  0  0  0  0  0  0
   -1.0183   -0.2785    5.3246 C   0  0  0  0  0  0  0  0  0  0  0  0
    0.4756   -0.4435    5.6764 C   0  0  0  0  0  0  0  0  0  0  0  0
    1.1548   -1.0537    4.4344 C   0  0  0  0  0  0  0  0  0  0  0  0
    1.0048    1.8381    0.0023 H   0  0  0  0  0  0  0  0  0  0  0  0
   -0.5450    1.8219   -0.8730 H   0  0  0  0  0  0  0  0  0  0  0  0
   -0.5280    1.8123    0.9069 H   0  0  0  0  0  0  0  0  0  0  0  0
    1.2718   -2.3605   -1.4602 H   0  0  0  0  0  0  0  0  0  0  0  0
   -1.9200   -4.4470   -1.8875 H   0  0  0  0  0  0  0  0  0  0  0  0
   -0.1632   -2.9019   -3.1416 H   0  0  0  0  0  0  0  0  0  0  0  0
    0.1202   -5.2071   -3.1583 H   0  0  0  0  0  0  0  0  0  0  0  0
    1.1125   -4.8124   -1.7343 H   0  0  0  0  0  0  0  0  0  0  0  0
   -1.2358   -6.7664   -1.6994 H   0  0  0  0  0  0  0  0  0  0  0  0
    0.6929   -5.6640    0.3409 H   0  0  0  0  0  0  0  0  0  0  0  0
   -0.9683   -6.2944    0.5707 H   0  0  0  0  0  0  0  0  0  0  0  0
    1.1224   -7.8061    1.3536 H   0  0  0  0  0  0  0  0  0  0  0  0
   -0.2296   -8.5877    0.4695 H   0  0  0  0  0  0  0  0  0  0  0  0
    2.4620   -7.6165   -0.6384 H   0  0  0  0  0  0  0  0  0  0  0  0
    1.6664   -9.2023   -0.8878 H   0  0  0  0  0  0  0  0  0  0  0  0
    0.2025   -8.3544   -2.4950 H   0  0  0  0  0  0  0  0  0  0  0  0
    1.4680   -7.1090   -2.6919 H   0  0  0  0  0  0  0  0  0  0  0  0
   -0.4608   -3.3126    2.8859 H   0  0  0  0  0  0  0  0  0  0  0  0
    1.2764   -2.9003    2.6974 H   0  0  0  0  0  0  0  0  0  0  0  0
   -2.1068   -1.0103    3.5715 H   0  0  0  0  0  0  0  0  0  0  0  0
   -1.4204   -2.3069    4.6055 H   0  0  0  0  0  0  0  0  0  0  0  0
   -1.2163    0.7323    4.9679 H   0  0  0  0  0  0  0  0  0  0  0  0
   -1.6409   -0.5070    6.1896 H   0  0  0  0  0  0  0  0  0  0  0  0
    0.9154    0.5277    5.9033 H   0  0  0  0  0  0  0  0  0  0  0  0
    0.5867   -1.1128    6.5295 H   0  0  0  0  0  0  0  0  0  0  0  0
    1.6071   -2.0125    4.6880 H   0  0  0  0  0  0  0  0  0  0  0  0
    1.9129   -0.3717    4.0491 H   0  0  0  0  0  0  0  0  0  0  0  0
   -1.1704   -4.4675    0.5026 H   0  0  0  0  0  0  0  0  0  0  0  0
  1  2  1  0  0  0  0
  1 25  1  0  0  0  0
  1 26  1  0  0  0  0
  1 27  1  0  0  0  0
  2 17  1  0  0  0  0
  2  3  1  0  0  0  0
  3  4  2  0  0  0  0
  3  5  1  0  0  0  0
  5  6  1  0  0  0  0
  5  9  1  0  0  0  0
  5 28  1  0  0  0  0
  6  7  2  0  0  0  0
  6 16  1  0  0  0  0
  7  8  1  0  0  0  0
  7 52  1  0  0  0  0
  8  9  1  0  0  0  0
  8 10  1  0  0  0  0
  8 29  1  0  0  0  0
  9 30  1  0  0  0  0
 10 11  1  0  0  0  0
 10 31  1  0  0  0  0
 10 32  1  0  0  0  0
 11 15  1  0  0  0  0
 11 12  1  0  0  0  0
 11 33  1  0  0  0  0
 12 13  1  0  0  0  0
 12 34  1  0  0  0  0
 12 35  1  0  0  0  0
 13 14  1  0  0  0  0
 13 36  1  0  0  0  0
 13 37  1  0  0  0  0
 14 15  1  0  0  0  0
 14 38  1  0  0  0  0
 14 39  1  0  0  0  0
 15 40  1  0  0  0  0
 15 41  1  0  0  0  0
 16 20  1  0  0  0  0
 16 17  1  0  0  0  0
 17 18  2  0  0  0  0
 18 19  1  0  0  0  0
 19 24  1  0  0  0  0
 19 20  1  0  0  0  0
 19 21  1  0  0  0  0
 20 42  1  0  0  0  0
 20 43  1  0  0  0  0
 21 22  1  0  0  0  0
 21 44  1  0  0  0  0
 21 45  1  0  0  0  0
 22 23  1  0  0  0  0
 22 46  1  0  0  0  0
 22 47  1  0  0  0  0
 23 24  1  0  0  0  0
 23 48  1  0  0  0  0
 23 49  1  0  0  0  0
 24 50  1  0  0  0  0
 24 51  1  0  0  0  0
M  CHG  1   7   1
M  END
$$$$
CHEMBL557593
  -OEChem-07121202283D

 73 78  0     0  0  0  0  0  0999 V2000
   -0.4215   -1.7350   -2.9465 C   0  0  0  0  0  0  0  0  0  0  0  0
   -0.0078   -3.1649   -2.5929 C   0  0  0  0  0  0  0  0  0  0  0  0
    0.4574   -3.2060   -1.2424 O   0  0  0  0  0  0  0  0  0  0  0  0
    0.8664   -4.4122   -0.7670 C   0  0  0  0  0  0  0  0  0  0  0  0
    0.8228   -5.5071   -1.5799 C   0  0  0  0  0  0  0  0  0  0  0  0
    1.2456   -6.7551   -1.0904 C   0  0  0  0  0  0  0  0  0  0  0  0
    1.2134   -7.9014   -1.9031 C   0  0  0  0  0  0  0  0  0  0  0  0
    1.6278   -9.1011   -1.4085 C   0  0  0  0  0  0  0  0  0  0  0  0
    2.0878   -9.2198   -0.1018 C   0  0  0  0  0  0  0  0  0  0  0  0
    2.1368   -8.1169    0.7325 C   0  0  0  0  0  0  0  0  0  0  0  0
    1.7120   -6.8583    0.2433 C   0  0  0  0  0  0  0  0  0  0  0  0
    1.7453   -5.7157    1.0551 C   0  0  0  0  0  0  0  0  0  0  0  0
    1.3334   -4.5151    0.5514 C   0  0  0  0  0  0  0  0  0  0  0  0
    1.3714   -3.4078    1.3388 O   0  0  0  0  0  0  0  0  0  0  0  0
    1.8571   -3.5762    2.6721 C   0  0  0  0  0  0  0  0  0  0  0  0
    1.8259   -2.2309    3.4000 C   0  0  0  0  0  0  0  0  0  0  0  0
    2.6277   -8.2522    2.1234 C   0  0  0  0  0  0  0  0  0  0  0  0
    1.9327   -9.0290    3.0586 C   0  0  0  0  0  0  0  0  0  0  0  0
    2.4218   -9.1301    4.3436 C   0  0  0  0  0  0  0  0  0  0  0  0
    3.5293   -8.5074    4.7000 N   0  0  0  0  0  0  0  0  0  0  0  0
    4.2190   -7.7624    3.8497 C   0  0  0  0  0  0  0  0  0  0  0  0
    3.7992   -7.6131    2.5354 C   0  0  0  0  0  0  0  0  0  0  0  0
    5.3842   -7.1252    4.2785 N   0  0  0  0  0  0  0  0  0  0  0  0
    5.7877   -7.2872    5.5552 C   0  0  0  0  0  0  0  0  0  0  0  0
    5.1453   -7.9799    6.3237 O   0  0  0  0  0  0  0  0  0  0  0  0
    7.0141   -6.6155    6.0038 C   0  0  0  0  0  0  0  0  0  0  0  0
    7.4874   -6.7410    7.3093 C   0  0  0  0  0  0  0  0  0  0  0  0
    8.6440   -6.0896    7.6779 C   0  0  0  0  0  0  0  0  0  0  0  0
    9.3406   -5.3108    6.7632 C   0  0  0  0  0  0  0  0  0  0  0  0
    8.8902   -5.1731    5.4686 C   0  0  0  0  0  0  0  0  0  0  0  0
    7.7226   -5.8239    5.0732 C   0  0  0  0  0  0  0  0  0  0  0  0
    7.1988   -5.7114    3.7041 C   0  0  0  0  0  0  0  0  0  0  0  0
    6.1017   -6.3432    3.3729 N   0  0  0  0  0  0  0  0  0  0  0  0
    7.9145   -4.8895    2.7003 C   0  0  0  0  0  0  0  0  0  0  0  0
    8.0452   -5.3338    1.3804 C   0  0  0  0  0  0  0  0  0  0  0  0
    8.7228   -4.5291    0.4813 C   0  0  0  0  0  0  0  0  0  0  0  0
    9.2441   -3.3225    0.9124 C   0  0  0  0  0  0  0  0  0  0  0  0
    9.1055   -2.9297    2.1639 N   0  0  0  0  0  0  0  0  0  0  0  0
    8.4637   -3.6580    3.0543 C   0  0  0  0  0  0  0  0  0  0  0  0
    2.5372  -10.5636    0.4113 C   0  0  0  0  0  0  0  0  0  0  0  0
    3.9334  -10.7285    0.1555 O   0  0  0  0  0  0  0  0  0  0  0  0
    1.5865  -10.3208   -2.2926 C   0  0  0  0  0  0  0  0  0  0  0  0
    1.0820   -9.9591   -3.5798 O   0  0  0  0  0  0  0  0  0  0  0  0
    0.4360   -1.0711   -2.8372 H   0  0  0  0  0  0  0  0  0  0  0  0
   -0.7764   -1.7036   -3.9766 H   0  0  0  0  0  0  0  0  0  0  0  0
   -1.2190   -1.4115   -2.2775 H   0  0  0  0  0  0  0  0  0  0  0  0
   -0.8653   -3.8288   -2.7022 H   0  0  0  0  0  0  0  0  0  0  0  0
    0.7897   -3.4883   -3.2619 H   0  0  0  0  0  0  0  0  0  0  0  0
    0.4647   -5.4154   -2.5947 H   0  0  0  0  0  0  0  0  0  0  0  0
    0.8593   -7.8311   -2.9210 H   0  0  0  0  0  0  0  0  0  0  0  0
    2.0992   -5.7840    2.0732 H   0  0  0  0  0  0  0  0  0  0  0  0
    1.2259   -4.2903    3.2012 H   0  0  0  0  0  0  0  0  0  0  0  0
    2.8808   -3.9492    2.6415 H   0  0  0  0  0  0  0  0  0  0  0  0
    2.4571   -1.5168    2.8710 H   0  0  0  0  0  0  0  0  0  0  0  0
    0.8022   -1.8579    3.4306 H   0  0  0  0  0  0  0  0  0  0  0  0
    2.1963   -2.3594    4.4171 H   0  0  0  0  0  0  0  0  0  0  0  0
    1.0250   -9.5420    2.7770 H   0  0  0  0  0  0  0  0  0  0  0  0
    1.8904   -9.7277    5.0696 H   0  0  0  0  0  0  0  0  0  0  0  0
    4.3668   -7.0085    1.8436 H   0  0  0  0  0  0  0  0  0  0  0  0
    6.9509   -7.3443    8.0266 H   0  0  0  0  0  0  0  0  0  0  0  0
    9.0125   -6.1854    8.6886 H   0  0  0  0  0  0  0  0  0  0  0  0
   10.2453   -4.8071    7.0703 H   0  0  0  0  0  0  0  0  0  0  0  0
    9.4386   -4.5652    4.7642 H   0  0  0  0  0  0  0  0  0  0  0  0
    7.6284   -6.2809    1.0710 H   0  0  0  0  0  0  0  0  0  0  0  0
    8.8435   -4.8400   -0.5459 H   0  0  0  0  0  0  0  0  0  0  0  0
    9.7734   -2.6921    0.2131 H   0  0  0  0  0  0  0  0  0  0  0  0
    8.3665   -3.3003    4.0687 H   0  0  0  0  0  0  0  0  0  0  0  0
    2.3549  -10.6223    1.4843 H   0  0  0  0  0  0  0  0  0  0  0  0
    1.9795  -11.3511   -0.0956 H   0  0  0  0  0  0  0  0  0  0  0  0
    4.2920  -11.5734    0.4601 H   0  0  0  0  0  0  0  0  0  0  0  0
    2.5922  -10.7276   -2.3978 H   0  0  0  0  0  0  0  0  0  0  0  0
    0.9356  -11.0720   -1.8452 H   0  0  0  0  0  0  0  0  0  0  0  0
    1.0277  -10.6969   -4.2025 H   0  0  0  0  0  0  0  0  0  0  0  0
  1  2  1  0  0  0  0
  1 44  1  0  0  0  0
  1 45  1  0  0  0  0
  1 46  1  0  0  0  0
  2  3  1  0  0  0  0
  2 47  1  0  0  0  0
  2 48  1  0  0  0  0
  3  4  1  0  0  0  0
  4 13  2  0  0  0  0
  4  5  1  0  0  0  0
  5  6  2  0  0  0  0
  5 49  1  0  0  0  0
  6 11  1  0  0  0  0
  6  7  1  0  0  0  0
  7  8  2  0  0  0  0
  7 50  1  0  0  0  0
  8  9  1  0  0  0  0
  8 42  1  0  0  0  0
  9 10  2  0  0  0  0
  9 40  1  0  0  0  0
 10 11  1  0  0  0  0
 10 17  1  0  0  0  0
 11 12  2  0  0  0  0
 12 13  1  0  0  0  0
 12 51  1  0  0  0  0
 13 14  1  0  0  0  0
 14 15  1  0  0  0  0
 15 16  1  0  0  0  0
 15 52  1  0  0  0  0
 15 53  1  0  0  0  0
 16 54  1  0  0  0  0
 16 55  1  0  0  0  0
 16 56  1  0  0  0  0
 17 22  2  0  0  0  0
 17 18  1  0  0  0  0
 18 19  2  0  0  0  0
 18 57  1  0  0  0  0
 19 20  1  0  0  0  0
 19 58  1  0  0  0  0
 20 21  2  0  0  0  0
 21 22  1  0  0  0  0
 21 23  1  0  0  0  0
 22 59  1  0  0  0  0
 23 33  1  0  0  0  0
 23 24  1  0  0  0  0
 24 25  2  0  0  0  0
 24 26  1  0  0  0  0
 26 31  2  0  0  0  0
 26 27  1  0  0  0  0
 27 28  2  0  0  0  0
 27 60  1  0  0  0  0
 28 29  1  0  0  0  0
 28 61  1  0  0  0  0
 29 30  2  0  0  0  0
 29 62  1  0  0  0  0
 30 31  1  0  0  0  0
 30 63  1  0  0  0  0
 31 32  1  0  0  0  0
 32 33  2  0  0  0  0
 32 34  1  0  0  0  0
 34 39  2  0  0  0  0
 34 35  1  0  0  0  0
 35 36  2  0  0  0  0
 35 64  1  0  0  0  0
 36 37  1  0  0  0  0
 36 65  1  0  0  0  0
 37 38  2  0  0  0  0
 37 66  1  0  0  0  0
 38 39  1  0  0  0  0
 39 67  1  0  0  0  0
 40 41  1  0  0  0  0
 40 68  1  0  0  0  0
 40 69  1  0  0  0  0
 41 70  1  0  0  0  0
 42 43  1  0  0  0  0
 42 71  1  0  0  0  0
 42 72  1  0  0  0  0
 43 73  1  0  0  0  0
M  END
$$$$
CHEMBL133285
  -OEChem-07121202283D

 63 69  0     1  0  0  0  0  0999 V2000
   -0.3805    2.0641    0.1291 C   0  0  0  0  0  0  0  0  0  0  0  0
   -0.2666    0.6408    0.0698 O   0  0  0  0  0  0  0  0  0  0  0  0
   -1.4249   -0.0714    0.0632 C   0  0  0  0  0  0  0  0  0  0  0  0
   -2.6436    0.5885    0.1070 C   0  0  0  0  0  0  0  0  0  0  0  0
   -3.8214   -0.1309    0.1004 C   0  0  0  0  0  0  0  0  0  0  0  0
   -3.7879   -1.5231    0.0493 C   0  0  0  0  0  0  0  0  0  0  0  0
   -2.5637   -2.1874    0.0048 C   0  0  0  0  0  0  0  0  0  0  0  0
   -1.3856   -1.4621    0.0067 C   0  0  0  0  0  0  0  0  0  0  0  0
   -0.1894   -2.1073   -0.0415 O   0  0  0  0  0  0  0  0  0  0  0  0
   -0.2241   -3.5348   -0.0981 C   0  0  0  0  0  0  0  0  0  0  0  0
   -5.0537   -2.2970    0.0427 C   0  0  0  0  0  0  0  0  0  0  0  0
   -5.0393   -3.6935   -0.0024 C   0  0  0  0  0  0  0  0  0  0  0  0
   -6.1877   -4.3471   -0.0064 N   0  0  0  0  0  0  0  0  0  0  0  0
   -7.3410   -3.6955    0.0317 C   0  0  0  0  0  0  0  0  0  0  0  0
   -7.3956   -2.3721    0.0746 N   0  0  0  0  0  0  0  0  0  0  0  0
   -6.2903   -1.6481    0.0873 C   0  0  0  0  0  0  0  0  0  0  0  0
   -8.5217   -4.4174    0.0260 N   0  0  0  0  0  0  0  0  0  0  0  0
   -8.4931   -5.8850   -0.0155 C   0  0  0  0  0  0  0  0  0  0  0  0
   -9.3145   -6.4352    1.1313 C   0  0  0  0  0  0  0  0  0  0  0  0
   -9.0790   -7.5294    1.6016 O   0  0  0  0  0  0  0  0  0  0  0  0
  -10.3670   -5.6332    1.6380 C   0  0  0  0  0  0  0  0  0  0  0  0
  -11.3450   -5.8987    2.6814 C   0  0  0  0  0  0  0  0  0  0  0  0
  -11.5732   -6.9942    3.5131 C   0  0  0  0  0  0  0  0  0  0  0  0
  -12.6218   -6.8907    4.4110 C   0  0  0  0  0  0  0  0  0  0  0  0
  -13.4103   -5.7554    4.4850 C   0  0  0  0  0  0  0  0  0  0  0  0
  -13.1999   -4.6570    3.6693 C   0  0  0  0  0  0  0  0  0  0  0  0
  -12.1508   -4.7356    2.7559 C   0  0  0  0  0  0  0  0  0  0  0  0
  -11.6868   -3.8414    1.8268 N   0  0  0  0  0  0  0  0  0  0  0  0
  -12.0628   -2.9610    1.6706 H   0  0  0  0  0  0  0  0  0  0  0  0
  -10.6382   -4.3550    1.1629 C   0  0  0  0  0  0  0  0  0  0  0  0
   -9.8198   -3.7208    0.0676 C   0  0  2  0  0  0  0  0  0  0  0  0
  -10.5287   -3.8772   -1.2530 C   0  0  0  0  0  0  0  0  0  0  0  0
  -10.8409   -5.1394   -1.7229 C   0  0  0  0  0  0  0  0  0  0  0  0
  -11.4916   -5.2880   -2.9335 C   0  0  0  0  0  0  0  0  0  0  0  0
  -11.8321   -4.1713   -3.6794 C   0  0  0  0  0  0  0  0  0  0  0  0
  -11.5176   -2.8998   -3.2060 C   0  0  0  0  0  0  0  0  0  0  0  0
  -10.8705   -2.7582   -1.9891 C   0  0  0  0  0  0  0  0  0  0  0  0
  -11.9530   -1.9768   -4.1124 O   0  0  0  0  0  0  0  0  0  0  0  0
  -12.1703   -2.7092   -5.3329 C   0  0  0  0  0  0  0  0  0  0  0  0
  -12.4646   -4.0448   -4.8824 O   0  0  0  0  0  0  0  0  0  0  0  0
    0.6148    2.5086    0.1281 H   0  0  0  0  0  0  0  0  0  0  0  0
   -0.9384    2.4203   -0.7369 H   0  0  0  0  0  0  0  0  0  0  0  0
   -0.9047    2.3490    1.0413 H   0  0  0  0  0  0  0  0  0  0  0  0
   -2.6712    1.6674    0.1466 H   0  0  0  0  0  0  0  0  0  0  0  0
   -4.7694    0.3853    0.1353 H   0  0  0  0  0  0  0  0  0  0  0  0
   -2.5347   -3.2663   -0.0346 H   0  0  0  0  0  0  0  0  0  0  0  0
    0.7942   -3.9219   -0.1326 H   0  0  0  0  0  0  0  0  0  0  0  0
   -0.7300   -3.9213    0.7866 H   0  0  0  0  0  0  0  0  0  0  0  0
   -0.7631   -3.8500   -0.9916 H   0  0  0  0  0  0  0  0  0  0  0  0
   -4.1031   -4.2309   -0.0339 H   0  0  0  0  0  0  0  0  0  0  0  0
   -6.3420   -0.5701    0.1273 H   0  0  0  0  0  0  0  0  0  0  0  0
   -8.9113   -6.2304   -0.9610 H   0  0  0  0  0  0  0  0  0  0  0  0
   -7.4636   -6.2314    0.0755 H   0  0  0  0  0  0  0  0  0  0  0  0
  -10.9608   -7.8821    3.4591 H   0  0  0  0  0  0  0  0  0  0  0  0
  -12.8302   -7.7187    5.0723 H   0  0  0  0  0  0  0  0  0  0  0  0
  -14.2162   -5.7254    5.2034 H   0  0  0  0  0  0  0  0  0  0  0  0
  -13.8222   -3.7769    3.7379 H   0  0  0  0  0  0  0  0  0  0  0  0
   -9.6669   -2.6636    0.2849 H   0  0  0  0  0  0  0  0  0  0  0  0
  -10.5755   -6.0111   -1.1432 H   0  0  0  0  0  0  0  0  0  0  0  0
  -11.7342   -6.2752   -3.2982 H   0  0  0  0  0  0  0  0  0  0  0  0
  -10.6294   -1.7733   -1.6174 H   0  0  0  0  0  0  0  0  0  0  0  0
  -13.0157   -2.2954   -5.8826 H   0  0  0  0  0  0  0  0  0  0  0  0
  -11.2711   -2.7023   -5.9490 H   0  0  0  0  0  0  0  0  0  0  0  0
  1  2  1  0  0  0  0
  1 41  1  0  0  0  0
  1 42  1  0  0  0  0
  1 43  1  0  0  0  0
  2  3  1  0  0  0  0
  3  8  2  0  0  0  0
  3  4  1  0  0  0  0
  4  5  2  0  0  0  0
  4 44  1  0  0  0  0
  5  6  1  0  0  0  0
  5 45  1  0  0  0  0
  6  7  2  0  0  0  0
  6 11  1  0  0  0  0
  7  8  1  0  0  0  0
  7 46  1  0  0  0  0
  8  9  1  0  0  0  0
  9 10  1  0  0  0  0
 10 47  1  0  0  0  0
 10 48  1  0  0  0  0
 10 49  1  0  0  0  0
 11 16  2  0  0  0  0
 11 12  1  0  0  0  0
 12 13  2  0  0  0  0
 12 50  1  0  0  0  0
 13 14  1  0  0  0  0
 14 15  2  0  0  0  0
 14 17  1  0  0  0  0
 15 16  1  0  0  0  0
 16 51  1  0  0  0  0
 17 31  1  0  0  0  0
 17 18  1  0  0  0  0
 18 19  1  0  0  0  0
 18 52  1  0  0  0  0
 18 53  1  0  0  0  0
 19 20  2  0  0  0  0
 19 21  1  0  0  0  0
 21 30  2  0  0  0  0
 21 22  1  0  0  0  0
 22 27  2  0  0  0  0
 22 23  1  0  0  0  0
 23 24  2  0  0  0  0
 23 54  1  0  0  0  0
 24 25  1  0  0  0  0
 24 55  1  0  0  0  0
 25 26  2  0  0  0  0
 25 56  1  0  0  0  0
 26 27  1  0  0  0  0
 26 57  1  0  0  0  0
 27 28  1  0  0  0  0
 28 29  1  0  0  0  0
 28 30  1  0  0  0  0
 30 31  1  0  0  0  0
 31 32  1  0  0  0  0
 31 58  1  0  0  0  0
 32 37  2  0  0  0  0
 32 33  1  0  0  0  0
 33 34  2  0  0  0  0
 33 59  1  0  0  0  0
 34 35  1  0  0  0  0
 34 60  1  0  0  0  0
 35 40  1  0  0  0  0
 35 36  2  0  0  0  0
 36 37  1  0  0  0  0
 36 38  1  0  0  0  0
 37 61  1  0  0  0  0
 38 39  1  0  0  0  0
 39 40  1  0  0  0  0
 39 62  1  0  0  0  0
 39 63  1  0  0  0  0
M  END
$$$$
CHEMBL133285
  -OEChem-07121202283D

 63 69  0     1  0  0  0  0  0999 V2000
    0.3451    0.6659    0.1137 C   0  0  0  0  0  0  0  0  0  0  0  0
    0.2556   -0.7589    0.0496 O   0  0  0  0  0  0  0  0  0  0  0  0
   -0.9921   -1.2996    0.0449 C   0  0  0  0  0  0  0  0  0  0  0  0
   -2.1046   -0.4736    0.0950 C   0  0  0  0  0  0  0  0  0  0  0  0
   -3.3726   -1.0185    0.0904 C   0  0  0  0  0  0  0  0  0  0  0  0
   -3.5372   -2.4012    0.0348 C   0  0  0  0  0  0  0  0  0  0  0  0
   -2.4197   -3.2323   -0.0161 C   0  0  0  0  0  0  0  0  0  0  0  0
   -1.1506   -2.6815   -0.0162 C   0  0  0  0  0  0  0  0  0  0  0  0
   -0.0583   -3.4898   -0.0706 O   0  0  0  0  0  0  0  0  0  0  0  0
   -0.2954   -4.8977   -0.1315 C   0  0  0  0  0  0  0  0  0  0  0  0
   -4.9000   -2.9877    0.0302 C   0  0  0  0  0  0  0  0  0  0  0  0
   -5.0841   -4.3718   -0.0193 C   0  0  0  0  0  0  0  0  0  0  0  0
   -6.3136   -4.8558   -0.0212 N   0  0  0  0  0  0  0  0  0  0  0  0
   -7.3627   -4.0473    0.0230 C   0  0  0  0  0  0  0  0  0  0  0  0
   -7.2287   -2.7297    0.0702 N   0  0  0  0  0  0  0  0  0  0  0  0
   -6.0318   -2.1700    0.0812 C   0  0  0  0  0  0  0  0  0  0  0  0
   -8.6339   -4.5943    0.0192 N   0  0  0  0  0  0  0  0  0  0  0  0
   -8.8139   -6.0510   -0.0270 C   0  0  0  0  0  0  0  0  0  0  0  0
   -9.7275   -6.4071   -1.1808 C   0  0  0  0  0  0  0  0  0  0  0  0
   -9.6590   -7.4917   -1.7219 O   0  0  0  0  0  0  0  0  0  0  0  0
  -10.6646   -5.4345   -1.6094 C   0  0  0  0  0  0  0  0  0  0  0  0
  -11.6907   -5.4938   -2.6385 C   0  0  0  0  0  0  0  0  0  0  0  0
  -12.0892   -6.4920   -3.5264 C   0  0  0  0  0  0  0  0  0  0  0  0
  -13.1299   -6.1859   -4.3864 C   0  0  0  0  0  0  0  0  0  0  0  0
  -13.7499   -4.9484   -4.3709 C   0  0  0  0  0  0  0  0  0  0  0  0
  -13.3693   -3.9438   -3.4979 C   0  0  0  0  0  0  0  0  0  0  0  0
  -12.3239   -4.2263   -2.6213 C   0  0  0  0  0  0  0  0  0  0  0  0
  -11.7191   -3.4663   -1.6545 N   0  0  0  0  0  0  0  0  0  0  0  0
  -11.9632   -2.5534   -1.4355 H   0  0  0  0  0  0  0  0  0  0  0  0
  -10.7415   -4.1630   -1.0521 C   0  0  0  0  0  0  0  0  0  0  0  0
   -9.8198   -3.7208    0.0676 C   0  0  1  0  0  0  0  0  0  0  0  0
  -10.5129   -3.8697    1.3975 C   0  0  0  0  0  0  0  0  0  0  0  0
  -10.9942   -5.1049    1.7899 C   0  0  0  0  0  0  0  0  0  0  0  0
  -11.6302   -5.2467    3.0090 C   0  0  0  0  0  0  0  0  0  0  0  0
  -11.7873   -4.1500    3.8408 C   0  0  0  0  0  0  0  0  0  0  0  0
  -11.3025   -2.9057    3.4455 C   0  0  0  0  0  0  0  0  0  0  0  0
  -10.6610   -2.7722    2.2248 C   0  0  0  0  0  0  0  0  0  0  0  0
  -11.5779   -1.9982    4.4273 O   0  0  0  0  0  0  0  0  0  0  0  0
  -12.5940   -2.6109    5.2431 C   0  0  0  0  0  0  0  0  0  0  0  0
  -12.3663   -4.0221    5.0703 O   0  0  0  0  0  0  0  0  0  0  0  0
    1.3933    0.9646    0.1106 H   0  0  0  0  0  0  0  0  0  0  0  0
   -0.1593    1.1008   -0.7492 H   0  0  0  0  0  0  0  0  0  0  0  0
   -0.1306    1.0190    1.0287 H   0  0  0  0  0  0  0  0  0  0  0  0
   -1.9787    0.5982    0.1381 H   0  0  0  0  0  0  0  0  0  0  0  0
   -4.2377   -0.3731    0.1302 H   0  0  0  0  0  0  0  0  0  0  0  0
   -2.5443   -4.3043   -0.0590 H   0  0  0  0  0  0  0  0  0  0  0  0
    0.6576   -5.4253   -0.1708 H   0  0  0  0  0  0  0  0  0  0  0  0
   -0.8483   -5.2117    0.7538 H   0  0  0  0  0  0  0  0  0  0  0  0
   -0.8763   -5.1300   -1.0241 H   0  0  0  0  0  0  0  0  0  0  0  0
   -4.2336   -5.0365   -0.0558 H   0  0  0  0  0  0  0  0  0  0  0  0
   -5.9299   -1.0957    0.1248 H   0  0  0  0  0  0  0  0  0  0  0  0
   -7.8463   -6.5329   -0.1671 H   0  0  0  0  0  0  0  0  0  0  0  0
   -9.2586   -6.3924    0.9078 H   0  0  0  0  0  0  0  0  0  0  0  0
  -11.6081   -7.4589   -3.5428 H   0  0  0  0  0  0  0  0  0  0  0  0
  -13.4673   -6.9333   -5.0892 H   0  0  0  0  0  0  0  0  0  0  0  0
  -14.5572   -4.7602   -5.0632 H   0  0  0  0  0  0  0  0  0  0  0  0
  -13.8613   -2.9824   -3.4965 H   0  0  0  0  0  0  0  0  0  0  0  0
   -9.5226   -2.6829   -0.0828 H   0  0  0  0  0  0  0  0  0  0  0  0
  -10.8733   -5.9608    1.1424 H   0  0  0  0  0  0  0  0  0  0  0  0
  -12.0052   -6.2128    3.3130 H   0  0  0  0  0  0  0  0  0  0  0  0
  -10.2801   -1.8094    1.9176 H   0  0  0  0  0  0  0  0  0  0  0  0
  -12.4683   -2.3278    6.2882 H   0  0  0  0  0  0  0  0  0  0  0  0
  -13.5873   -2.3368    4.8878 H   0  0  0  0  0  0  0  0  0  0  0  0
  1  2  1  0  0  0  0
  1 41  1  0  0  0  0
  1 42  1  0  0  0  0
  1 43  1  0  0  0  0
  2  3  1  0  0  0  0
  3  8  2  0  0  0  0
  3  4  1  0  0  0  0
  4  5  2  0  0  0  0
  4 44  1  0  0  0  0
  5  6  1  0  0  0  0
  5 45  1  0  0  0  0
  6  7  2  0  0  0  0
  6 11  1  0  0  0  0
  7  8  1  0  0  0  0
  7 46  1  0  0  0  0
  8  9  1  0  0  0  0
  9 10  1  0  0  0  0
 10 47  1  0  0  0  0
 10 48  1  0  0  0  0
 10 49  1  0  0  0  0
 11 16  2  0  0  0  0
 11 12  1  0  0  0  0
 12 13  2  0  0  0  0
 12 50  1  0  0  0  0
 13 14  1  0  0  0  0
 14 15  2  0  0  0  0
 14 17  1  0  0  0  0
 15 16  1  0  0  0  0
 16 51  1  0  0  0  0
 17 31  1  0  0  0  0
 17 18  1  0  0  0  0
 18 19  1  0  0  0  0
 18 52  1  0  0  0  0
 18 53  1  0  0  0  0
 19 20  2  0  0  0  0
 19 21  1  0  0  0  0
 21 30  2  0  0  0  0
 21 22  1  0  0  0  0
 22 27  2  0  0  0  0
 22 23  1  0  0  0  0
 23 24  2  0  0  0  0
 23 54  1  0  0  0  0
 24 25  1  0  0  0  0
 24 55  1  0  0  0  0
 25 26  2  0  0  0  0
 25 56  1  0  0  0  0
 26 27  1  0  0  0  0
 26 57  1  0  0  0  0
 27 28  1  0  0  0  0
 28 29  1  0  0  0  0
 28 30  1  0  0  0  0
 30 31  1  0  0  0  0
 31 32  1  0  0  0  0
 31 58  1  0  0  0  0
 32 37  2  0  0  0  0
 32 33  1  0  0  0  0
 33 34  2  0  0  0  0
 33 59  1  0  0  0  0
 34 35  1  0  0  0  0
 34 60  1  0  0  0  0
 35 40  1  0  0  0  0
 35 36  2  0  0  0  0
 36 37  1  0  0  0  0
 36 38  1  0  0  0  0
 37 61  1  0  0  0  0
 38 39  1  0  0  0  0
 39 40  1  0  0  0  0
 39 62  1  0  0  0  0
 39 63  1  0  0  0  0
M  END
$$$$
CHEMBL362938
  -OEChem-07121202283D

 66 71  0     1  0  0  0  0  0999 V2000
   -0.5394    1.7239    1.5597 C   0  0  0  0  0  0  0  0  0  0  0  0
   -0.3948    0.2158    1.3459 C   0  0  0  0  0  0  0  0  0  0  0  0
   -1.7086   -0.3646    1.0571 N   0  0  0  0  0  0  0  0  0  0  0  0
   -2.4745   -0.7995    2.0738 C   0  0  0  0  0  0  0  0  0  0  0  0
   -2.0822   -0.7128    3.2229 O   0  0  0  0  0  0  0  0  0  0  0  0
   -3.7875   -1.3785    1.7789 C   0  0  0  0  0  0  0  0  0  0  0  0
   -4.1930   -1.4562    0.4509 C   0  0  0  0  0  0  0  0  0  0  0  0
   -5.4292   -2.0242    0.4537 N   0  0  0  0  0  0  0  0  0  0  0  0
   -5.7579   -2.2824    1.7648 C   0  0  0  0  0  0  0  0  0  0  0  0
   -4.7707   -1.8924    2.5404 N   0  0  0  0  0  0  0  0  0  0  0  0
   -6.9796   -2.8803    2.2125 C   0  0  0  0  0  0  0  0  0  0  0  0
   -7.9813   -3.3704    2.5796 C   0  0  0  0  0  0  0  0  0  0  0  0
   -9.2031   -3.9683    3.0274 C   0  0  0  0  0  0  0  0  0  0  0  0
  -10.1799   -4.3478    2.1020 C   0  0  0  0  0  0  0  0  0  0  0  0
  -11.3537   -4.9233    2.5409 C   0  0  0  0  0  0  0  0  0  0  0  0
  -11.5659   -5.1255    3.8934 C   0  0  0  0  0  0  0  0  0  0  0  0
  -10.6039   -4.7521    4.8155 C   0  0  0  0  0  0  0  0  0  0  0  0
   -9.4226   -4.1806    4.3917 C   0  0  0  0  0  0  0  0  0  0  0  0
   -6.2571   -2.3080   -0.7211 C   0  0  0  0  0  0  0  0  0  0  0  0
   -6.0428   -3.7356   -1.1537 C   0  0  0  0  0  0  0  0  0  0  0  0
   -5.1522   -4.0219   -2.1719 C   0  0  0  0  0  0  0  0  0  0  0  0
   -4.9544   -5.3297   -2.5706 C   0  0  0  0  0  0  0  0  0  0  0  0
   -5.6498   -6.3562   -1.9482 C   0  0  0  0  0  0  0  0  0  0  0  0
   -6.5424   -6.0663   -0.9265 C   0  0  0  0  0  0  0  0  0  0  0  0
   -6.7328   -4.7573   -0.5280 C   0  0  0  0  0  0  0  0  0  0  0  0
   -5.4572   -7.6435   -2.3389 O   0  0  0  0  0  0  0  0  0  0  0  0
   -3.3641   -0.9942   -0.5469 N   0  0  0  0  0  0  0  0  0  0  0  0
   -2.1393   -0.4490   -0.2585 C   0  0  0  0  0  0  0  0  0  0  0  0
   -1.4897   -0.0583   -1.3223 N   0  3  0  0  0  0  0  0  0  0  0  0
   -2.2747   -0.3154   -2.5326 C   0  0  1  0  0  0  0  0  0  0  0  0
   -1.7467   -1.0050   -3.1912 H   0  0  0  0  0  0  0  0  0  0  0  0
   -3.5661   -0.9682   -2.0071 C   0  0  0  0  0  0  0  0  0  0  0  0
   -2.5792    0.9943   -3.2626 C   0  0  0  0  0  0  0  0  0  0  0  0
   -1.2970    1.5856   -3.7894 C   0  0  0  0  0  0  0  0  0  0  0  0
   -0.5638    2.4562   -3.0050 C   0  0  0  0  0  0  0  0  0  0  0  0
    0.6122    2.9986   -3.4882 C   0  0  0  0  0  0  0  0  0  0  0  0
    1.0554    2.6701   -4.7557 C   0  0  0  0  0  0  0  0  0  0  0  0
    0.3227    1.7987   -5.5398 C   0  0  0  0  0  0  0  0  0  0  0  0
   -0.8512    1.2530   -5.0549 C   0  0  0  0  0  0  0  0  0  0  0  0
    0.4381    2.1557    1.7746 H   0  0  0  0  0  0  0  0  0  0  0  0
   -0.9484    2.1810    0.6587 H   0  0  0  0  0  0  0  0  0  0  0  0
   -1.2108    1.9093    2.3981 H   0  0  0  0  0  0  0  0  0  0  0  0
    0.2766    0.0304    0.5075 H   0  0  0  0  0  0  0  0  0  0  0  0
    0.0142   -0.2413    2.2469 H   0  0  0  0  0  0  0  0  0  0  0  0
  -10.0158   -4.1902    1.0463 H   0  0  0  0  0  0  0  0  0  0  0  0
  -12.1094   -5.2167    1.8273 H   0  0  0  0  0  0  0  0  0  0  0  0
  -12.4872   -5.5767    4.2311 H   0  0  0  0  0  0  0  0  0  0  0  0
  -10.7769   -4.9124    5.8694 H   0  0  0  0  0  0  0  0  0  0  0  0
   -8.6707   -3.8941    5.1121 H   0  0  0  0  0  0  0  0  0  0  0  0
   -7.3072   -2.1580   -0.4704 H   0  0  0  0  0  0  0  0  0  0  0  0
   -5.9779   -1.6365   -1.5331 H   0  0  0  0  0  0  0  0  0  0  0  0
   -4.6112   -3.2225   -2.6562 H   0  0  0  0  0  0  0  0  0  0  0  0
   -4.2592   -5.5528   -3.3665 H   0  0  0  0  0  0  0  0  0  0  0  0
   -7.0850   -6.8636   -0.4404 H   0  0  0  0  0  0  0  0  0  0  0  0
   -7.4243   -4.5315    0.2703 H   0  0  0  0  0  0  0  0  0  0  0  0
   -4.7506   -8.0982   -1.8604 H   0  0  0  0  0  0  0  0  0  0  0  0
   -3.6828   -1.9794   -2.3971 H   0  0  0  0  0  0  0  0  0  0  0  0
   -4.4287   -0.3538   -2.2649 H   0  0  0  0  0  0  0  0  0  0  0  0
   -3.2570    0.7981   -4.0933 H   0  0  0  0  0  0  0  0  0  0  0  0
   -3.0456    1.6958   -2.5710 H   0  0  0  0  0  0  0  0  0  0  0  0
   -0.9101    2.7129   -2.0147 H   0  0  0  0  0  0  0  0  0  0  0  0
    1.1847    3.6794   -2.8756 H   0  0  0  0  0  0  0  0  0  0  0  0
    1.9739    3.0944   -5.1335 H   0  0  0  0  0  0  0  0  0  0  0  0
    0.6687    1.5423   -6.5302 H   0  0  0  0  0  0  0  0  0  0  0  0
   -1.4217    0.5694   -5.6661 H   0  0  0  0  0  0  0  0  0  0  0  0
   -0.6084    0.3468   -1.3124 H   0  0  0  0  0  0  0  0  0  0  0  0
  1  2  1  0  0  0  0
  1 40  1  0  0  0  0
  1 41  1  0  0  0  0
  1 42  1  0  0  0  0
  2  3  1  0  0  0  0
  2 43  1  0  0  0  0
  2 44  1  0  0  0  0
  3 28  1  0  0  0  0
  3  4  1  0  0  0  0
  4  5  2  0  0  0  0
  4  6  1  0  0  0  0
  6 10  1  0  0  0  0
  6  7  2  0  0  0  0
  7  8  1  0  0  0  0
  7 27  1  0  0  0  0
  8  9  1  0  0  0  0
  8 19  1  0  0  0  0
  9 10  2  0  0  0  0
  9 11  1  0  0  0  0
 11 12  3  0  0  0  0
 12 13  1  0  0  0  0
 13 18  2  0  0  0  0
 13 14  1  0  0  0  0
 14 15  2  0  0  0  0
 14 45  1  0  0  0  0
 15 16  1  0  0  0  0
 15 46  1  0  0  0  0
 16 17  2  0  0  0  0
 16 47  1  0  0  0  0
 17 18  1  0  0  0  0
 17 48  1  0  0  0  0
 18 49  1  0  0  0  0
 19 20  1  0  0  0  0
 19 50  1  0  0  0  0
 19 51  1  0  0  0  0
 20 25  2  0  0  0  0
 20 21  1  0  0  0  0
 21 22  2  0  0  0  0
 21 52  1  0  0  0  0
 22 23  1  0  0  0  0
 22 53  1  0  0  0  0
 23 24  2  0  0  0  0
 23 26  1  0  0  0  0
 24 25  1  0  0  0  0
 24 54  1  0  0  0  0
 25 55  1  0  0  0  0
 26 56  1  0  0  0  0
 27 32  1  0  0  0  0
 27 28  1  0  0  0  0
 28 29  2  0  0  0  0
 29 30  1  0  0  0  0
 29 66  1  0  0  0  0
 30 31  1  0  0  0  0
 30 32  1  0  0  0  0
 30 33  1  0  0  0  0
 32 57  1  0  0  0  0
 32 58  1  0  0  0  0
 33 34  1  0  0  0  0
 33 59  1  0  0  0  0
 33 60  1  0  0  0  0
 34 39  2  0  0  0  0
 34 35  1  0  0  0  0
 35 36  2  0  0  0  0
 35 61  1  0  0  0  0
 36 37  1  0  0  0  0
 36 62  1  0  0  0  0
 37 38  2  0  0  0  0
 37 63  1  0  0  0  0
 38 39  1  0  0  0  0
 38 64  1  0  0  0  0
 39 65  1  0  0  0  0
M  CHG  1  29   1
M  END
$$$$
CHEMBL25616
  -OEChem-07121202283D

 51 55  0     0  0  0  0  0  0999 V2000
   -0.0167    1.3779    0.0096 C   0  0  0  0  0  0  0  0  0  0  0  0
    1.1696    2.0885    0.0021 C   0  0  0  0  0  0  0  0  0  0  0  0
    2.3803    1.4160   -0.0135 C   0  0  0  0  0  0  0  0  0  0  0  0
    2.3992    0.0230   -0.0212 C   0  0  0  0  0  0  0  0  0  0  0  0
    1.2071   -0.6821   -0.0137 C   0  0  0  0  0  0  0  0  0  0  0  0
    0.0021   -0.0041    0.0020 C   0  0  0  0  0  0  0  0  0  0  0  0
   -1.2936   -0.7736    0.0102 C   0  0  0  0  0  0  0  0  0  0  0  0
   -1.7266   -1.0156   -1.3682 N   0  0  0  0  0  0  0  0  0  0  0  0
   -2.8943   -1.7063   -1.6127 C   0  0  0  0  0  0  0  0  0  0  0  0
   -3.3270   -1.9556   -2.9394 C   0  0  0  0  0  0  0  0  0  0  0  0
   -2.5993   -1.5184   -4.0513 C   0  0  0  0  0  0  0  0  0  0  0  0
   -3.0632   -1.7870   -5.3068 C   0  0  0  0  0  0  0  0  0  0  0  0
   -4.2507   -2.4902   -5.4945 C   0  0  0  0  0  0  0  0  0  0  0  0
   -4.9823   -2.9290   -4.4311 C   0  0  0  0  0  0  0  0  0  0  0  0
   -4.5343   -2.6706   -3.1285 C   0  0  0  0  0  0  0  0  0  0  0  0
   -5.2174   -3.0819   -2.0495 N   0  0  0  0  0  0  0  0  0  0  0  0
   -4.7688   -2.8226   -0.8364 C   0  0  0  0  0  0  0  0  0  0  0  0
   -3.6376   -2.1588   -0.6139 N   0  0  0  0  0  0  0  0  0  0  0  0
   -5.5029   -3.2637    0.2499 N   0  0  0  0  0  0  0  0  0  0  0  0
   -5.0473   -2.9940    1.6204 C   0  0  0  0  0  0  0  0  0  0  0  0
   -6.1823   -2.3138    2.3924 C   0  0  0  0  0  0  0  0  0  0  0  0
   -7.4418   -3.1791    2.3075 C   0  0  0  0  0  0  0  0  0  0  0  0
   -7.8688   -3.3191    0.8446 C   0  0  0  0  0  0  0  0  0  0  0  0
   -6.7561   -4.0054    0.0550 C   0  0  0  0  0  0  0  0  0  0  0  0
   -8.5510   -2.5298    3.0943 C   0  0  0  0  0  0  0  0  0  0  0  0
   -9.7119   -2.6912    2.7585 O   0  0  0  0  0  0  0  0  0  0  0  0
   -8.2874   -1.8431    4.0667 O   0  5  0  0  0  0  0  0  0  0  0  0
   -2.1615   -1.2445   -6.6875 Cl  0  0  0  0  0  0  0  0  0  0  0  0
    3.6984   -0.3954   -0.0364 O   0  0  0  0  0  0  0  0  0  0  0  0
    4.4664    0.7501   -0.4501 C   0  0  0  0  0  0  0  0  0  0  0  0
    3.6676    1.8697   -0.0238 O   0  0  0  0  0  0  0  0  0  0  0  0
   -0.9598    1.9039    0.0259 H   0  0  0  0  0  0  0  0  0  0  0  0
    1.1520    3.1683    0.0081 H   0  0  0  0  0  0  0  0  0  0  0  0
    1.2188   -1.7620   -0.0196 H   0  0  0  0  0  0  0  0  0  0  0  0
   -1.1467   -1.7271    0.5176 H   0  0  0  0  0  0  0  0  0  0  0  0
   -2.0555   -0.1967    0.5345 H   0  0  0  0  0  0  0  0  0  0  0  0
   -1.1917   -0.6897   -2.1089 H   0  0  0  0  0  0  0  0  0  0  0  0
   -1.6774   -0.9720   -3.9174 H   0  0  0  0  0  0  0  0  0  0  0  0
   -4.5974   -2.6905   -6.4975 H   0  0  0  0  0  0  0  0  0  0  0  0
   -5.9015   -3.4728   -4.5916 H   0  0  0  0  0  0  0  0  0  0  0  0
   -4.7839   -3.9320    2.1091 H   0  0  0  0  0  0  0  0  0  0  0  0
   -4.1782   -2.3367    1.5940 H   0  0  0  0  0  0  0  0  0  0  0  0
   -5.8922   -2.1952    3.4364 H   0  0  0  0  0  0  0  0  0  0  0  0
   -6.3832   -1.3351    1.9567 H   0  0  0  0  0  0  0  0  0  0  0  0
   -7.2330   -4.1658    2.7209 H   0  0  0  0  0  0  0  0  0  0  0  0
   -8.7790   -3.9160    0.7868 H   0  0  0  0  0  0  0  0  0  0  0  0
   -8.0538   -2.3310    0.4234 H   0  0  0  0  0  0  0  0  0  0  0  0
   -7.0141   -4.0152   -1.0040 H   0  0  0  0  0  0  0  0  0  0  0  0
   -6.6351   -5.0277    0.4132 H   0  0  0  0  0  0  0  0  0  0  0  0
    5.4365    0.7605    0.0468 H   0  0  0  0  0  0  0  0  0  0  0  0
    4.5896    0.7578   -1.5331 H   0  0  0  0  0  0  0  0  0  0  0  0
  1  6  2  0  0  0  0
  1  2  1  0  0  0  0
  1 32  1  0  0  0  0
  2  3  2  0  0  0  0
  2 33  1  0  0  0  0
  3 31  1  0  0  0  0
  3  4  1  0  0  0  0
  4  5  2  0  0  0  0
  4 29  1  0  0  0  0
  5  6  1  0  0  0  0
  5 34  1  0  0  0  0
  6  7  1  0  0  0  0
  7  8  1  0  0  0  0
  7 35  1  0  0  0  0
  7 36  1  0  0  0  0
  8  9  1  0  0  0  0
  8 37  1  0  0  0  0
  9 18  2  0  0  0  0
  9 10  1  0  0  0  0
 10 15  2  0  0  0  0
 10 11  1  0  0  0  0
 11 12  2  0  0  0  0
 11 38  1  0  0  0  0
 12 13  1  0  0  0  0
 12 28  1  0  0  0  0
 13 14  2  0  0  0  0
 13 39  1  0  0  0  0
 14 15  1  0  0  0  0
 14 40  1  0  0  0  0
 15 16  1  0  0  0  0
 16 17  2  0  0  0  0
 17 18  1  0  0  0  0
 17 19  1  0  0  0  0
 19 24  1  0  0  0  0
 19 20  1  0  0  0  0
 20 21  1  0  0  0  0
 20 41  1  0  0  0  0
 20 42  1  0  0  0  0
 21 22  1  0  0  0  0
 21 43  1  0  0  0  0
 21 44  1  0  0  0  0
 22 23  1  0  0  0  0
 22 25  1  0  0  0  0
 22 45  1  0  0  0  0
 23 24  1  0  0  0  0
 23 46  1  0  0  0  0
 23 47  1  0  0  0  0
 24 48  1  0  0  0  0
 24 49  1  0  0  0  0
 25 26  2  0  0  0  0
 25 27  1  0  0  0  0
 29 30  1  0  0  0  0
 30 31  1  0  0  0  0
 30 50  1  0  0  0  0
 30 51  1  0  0  0  0
M  CHG  1  27  -1
M  END
$$$$
CHEMBL25616
  -OEChem-07121202283D

 52 56  0     0  0  0  0  0  0999 V2000
   -0.0633    1.4319    0.0000 C   0  0  0  0  0  0  0  0  0  0  0  0
    1.1157    2.1545   -0.0075 C   0  0  0  0  0  0  0  0  0  0  0  0
    2.3333    1.4943   -0.0135 C   0  0  0  0  0  0  0  0  0  0  0  0
    2.3664    0.1016   -0.0115 C   0  0  0  0  0  0  0  0  0  0  0  0
    1.1815   -0.6156   -0.0040 C   0  0  0  0  0  0  0  0  0  0  0  0
   -0.0304    0.0502    0.0021 C   0  0  0  0  0  0  0  0  0  0  0  0
   -1.3182   -0.7325    0.0103 C   0  0  0  0  0  0  0  0  0  0  0  0
   -1.7430   -0.9883   -1.3682 N   0  0  0  0  0  0  0  0  0  0  0  0
   -2.9025   -1.6926   -1.6127 C   0  0  0  0  0  0  0  0  0  0  0  0
   -3.3272   -1.9554   -2.9394 C   0  0  0  0  0  0  0  0  0  0  0  0
   -2.5993   -1.5184   -4.0513 C   0  0  0  0  0  0  0  0  0  0  0  0
   -3.0552   -1.8004   -5.3068 C   0  0  0  0  0  0  0  0  0  0  0  0
   -4.2347   -2.5169   -5.4945 C   0  0  0  0  0  0  0  0  0  0  0  0
   -4.9662   -2.9559   -4.4312 C   0  0  0  0  0  0  0  0  0  0  0  0
   -4.5263   -2.6840   -3.1285 C   0  0  0  0  0  0  0  0  0  0  0  0
   -5.2096   -3.0948   -2.0495 N   0  3  0  0  0  0  0  0  0  0  0  0
   -4.7690   -2.8222   -0.8364 C   0  0  0  0  0  0  0  0  0  0  0  0
   -3.6453   -2.1457   -0.6139 N   0  0  0  0  0  0  0  0  0  0  0  0
   -5.5033   -3.2629    0.2499 N   0  0  0  0  0  0  0  0  0  0  0  0
   -4.9947   -3.0893    1.6173 C   0  0  0  0  0  0  0  0  0  0  0  0
   -6.0595   -2.3706    2.4519 C   0  0  0  0  0  0  0  0  0  0  0  0
   -7.3776   -3.1435    2.3649 C   0  0  0  0  0  0  0  0  0  0  0  0
   -7.8512   -3.1855    0.9102 C   0  0  0  0  0  0  0  0  0  0  0  0
   -6.8095   -3.9080    0.0585 C   0  0  0  0  0  0  0  0  0  0  0  0
   -8.4184   -2.4580    3.2121 C   0  0  0  0  0  0  0  0  0  0  0  0
   -9.5960   -2.5244    2.9034 O   0  0  0  0  0  0  0  0  0  0  0  0
   -8.0828   -1.8371    4.2063 O   0  5  0  0  0  0  0  0  0  0  0  0
   -2.1533   -1.2582   -6.6875 Cl  0  0  0  0  0  0  0  0  0  0  0  0
    3.6698   -0.3036   -0.0184 O   0  0  0  0  0  0  0  0  0  0  0  0
    4.4279    0.8468   -0.4369 C   0  0  0  0  0  0  0  0  0  0  0  0
    3.6160    1.9611   -0.0217 O   0  0  0  0  0  0  0  0  0  0  0  0
   -1.0117    1.9484    0.0089 H   0  0  0  0  0  0  0  0  0  0  0  0
    1.0871    3.2341   -0.0091 H   0  0  0  0  0  0  0  0  0  0  0  0
    1.2042   -1.6954   -0.0024 H   0  0  0  0  0  0  0  0  0  0  0  0
   -1.1637   -1.6809    0.5248 H   0  0  0  0  0  0  0  0  0  0  0  0
   -2.0881   -0.1598    0.5274 H   0  0  0  0  0  0  0  0  0  0  0  0
   -1.2083   -0.6621   -2.1089 H   0  0  0  0  0  0  0  0  0  0  0  0
   -1.6836   -0.9617   -3.9175 H   0  0  0  0  0  0  0  0  0  0  0  0
   -4.5751   -2.7277   -6.4976 H   0  0  0  0  0  0  0  0  0  0  0  0
   -5.8791   -3.5101   -4.5916 H   0  0  0  0  0  0  0  0  0  0  0  0
   -4.7841   -4.0649    2.0554 H   0  0  0  0  0  0  0  0  0  0  0  0
   -4.0833   -2.4920    1.5951 H   0  0  0  0  0  0  0  0  0  0  0  0
   -5.7348   -2.3210    3.4912 H   0  0  0  0  0  0  0  0  0  0  0  0
   -6.2036   -1.3612    2.0667 H   0  0  0  0  0  0  0  0  0  0  0  0
   -7.2268   -4.1604    2.7272 H   0  0  0  0  0  0  0  0  0  0  0  0
   -8.8017   -3.7159    0.8522 H   0  0  0  0  0  0  0  0  0  0  0  0
   -7.9783   -2.1684    0.5395 H   0  0  0  0  0  0  0  0  0  0  0  0
   -7.0949   -3.8506   -0.9919 H   0  0  0  0  0  0  0  0  0  0  0  0
   -6.7501   -4.9518    0.3667 H   0  0  0  0  0  0  0  0  0  0  0  0
    5.3957    0.8705    0.0638 H   0  0  0  0  0  0  0  0  0  0  0  0
    4.5555    0.8483   -1.5194 H   0  0  0  0  0  0  0  0  0  0  0  0
   -6.0330   -3.5951   -2.1621 H   0  0  0  0  0  0  0  0  0  0  0  0
  1  6  2  0  0  0  0
  1  2  1  0  0  0  0
  1 32  1  0  0  0  0
  2  3  2  0  0  0  0
  2 33  1  0  0  0  0
  3 31  1  0  0  0  0
  3  4  1  0  0  0  0
  4  5  2  0  0  0  0
  4 29  1  0  0  0  0
  5  6  1  0  0  0  0
  5 34  1  0  0  0  0
  6  7  1  0  0  0  0
  7  8  1  0  0  0  0
  7 35  1  0  0  0  0
  7 36  1  0  0  0  0
  8  9  1  0  0  0  0
  8 37  1  0  0  0  0
  9 18  2  0  0  0  0
  9 10  1  0  0  0  0
 10 15  2  0  0  0  0
 10 11  1  0  0  0  0
 11 12  2  0  0  0  0
 11 38  1  0  0  0  0
 12 13  1  0  0  0  0
 12 28  1  0  0  0  0
 13 14  2  0  0  0  0
 13 39  1  0  0  0  0
 14 15  1  0  0  0  0
 14 40  1  0  0  0  0
 15 16  1  0  0  0  0
 16 17  2  0  0  0  0
 16 52  1  0  0  0  0
 17 18  1  0  0  0  0
 17 19  1  0  0  0  0
 19 24  1  0  0  0  0
 19 20  1  0  0  0  0
 20 21  1  0  0  0  0
 20 41  1  0  0  0  0
 20 42  1  0  0  0  0
 21 22  1  0  0  0  0
 21 43  1  0  0  0  0
 21 44  1  0  0  0  0
 22 23  1  0  0  0  0
 22 25  1  0  0  0  0
 22 45  1  0  0  0  0
 23 24  1  0  0  0  0
 23 46  1  0  0  0  0
 23 47  1  0  0  0  0
 24 48  1  0  0  0  0
 24 49  1  0  0  0  0
 25 26  2  0  0  0  0
 25 27  1  0  0  0  0
 29 30  1  0  0  0  0
 30 31  1  0  0  0  0
 30 50  1  0  0  0  0
 30 51  1  0  0  0  0
M  CHG  2  16   1  27  -1
M  END
$$$$
CHEMBL474228
  -OEChem-07121202283D

 62 65  0     0  0  0  0  0  0999 V2000
    0.8715    1.2764    0.5140 C   0  0  0  0  0  0  0  0  0  0  0  0
    1.1037   -0.2357    0.5379 C   0  0  0  0  0  0  0  0  0  0  0  0
    1.6429   -0.6547   -0.7174 O   0  0  0  0  0  0  0  0  0  0  0  0
    1.9073   -1.9701   -0.8622 C   0  0  0  0  0  0  0  0  0  0  0  0
    1.6854   -2.7397    0.0538 O   0  0  0  0  0  0  0  0  0  0  0  0
    2.4436   -2.4554   -2.0817 C   0  0  0  0  0  0  0  0  0  0  0  0
    2.7822   -3.7515   -2.4486 C   0  0  0  0  0  0  0  0  0  0  0  0
    3.2623   -3.9069   -3.6559 N   0  0  0  0  0  0  0  0  0  0  0  0
    3.4138   -2.8818   -4.4759 C   0  0  0  0  0  0  0  0  0  0  0  0
    2.8638   -1.5710   -3.5751 S   0  0  0  0  0  0  0  0  0  0  0  0
    3.9029   -2.8859   -5.7672 N   0  0  0  0  0  0  0  0  0  0  0  0
    3.9888   -1.6994   -6.4798 C   0  0  0  0  0  0  0  0  0  0  0  0
    3.6021   -0.5718   -5.9034 N   0  0  0  0  0  0  0  0  0  0  0  0
    3.6701    0.5860   -6.5566 C   0  0  0  0  0  0  0  0  0  0  0  0
    4.1553    0.6001   -7.8610 C   0  0  0  0  0  0  0  0  0  0  0  0
    4.5523   -0.6050   -8.4331 C   0  0  0  0  0  0  0  0  0  0  0  0
    4.4605   -1.7232   -7.7169 N   0  0  0  0  0  0  0  0  0  0  0  0
    5.0414   -0.6395   -9.7297 N   0  0  0  0  0  0  0  0  0  0  0  0
    5.1900   -1.9170  -10.4399 C   0  0  0  0  0  0  0  0  0  0  0  0
    4.4541   -1.8245  -11.7803 C   0  0  0  0  0  0  0  0  0  0  0  0
    4.9679   -0.6101  -12.5570 C   0  0  0  0  0  0  0  0  0  0  0  0
    4.6826    0.6651  -11.7604 C   0  0  0  0  0  0  0  0  0  0  0  0
    5.4154    0.6013  -10.4220 C   0  0  0  0  0  0  0  0  0  0  0  0
    4.3064   -0.5393  -13.8218 O   0  0  0  0  0  0  0  0  0  0  0  0
    3.2627    1.7619   -5.9460 N   0  0  0  0  0  0  0  0  0  0  0  0
    2.5551    1.7307   -4.6587 C   0  0  0  0  0  0  0  0  0  0  0  0
    3.2902    2.6410   -3.6699 C   0  0  0  0  0  0  0  0  0  0  0  0
    3.4300    4.0390   -4.2766 C   0  0  0  0  0  0  0  0  0  0  0  0
    4.2544    3.9584   -5.5634 C   0  0  0  0  0  0  0  0  0  0  0  0
    3.5357    3.0634   -6.5708 C   0  0  0  0  0  0  0  0  0  0  0  0
    4.0868    4.8994   -3.3436 O   0  0  0  0  0  0  0  0  0  0  0  0
    2.6068   -4.9153   -1.5073 C   0  0  0  0  0  0  0  0  0  0  0  0
    1.8182    1.7866    0.3367 H   0  0  0  0  0  0  0  0  0  0  0  0
    0.1706    1.5237   -0.2833 H   0  0  0  0  0  0  0  0  0  0  0  0
    0.4602    1.5960    1.4715 H   0  0  0  0  0  0  0  0  0  0  0  0
    1.8046   -0.4831    1.3352 H   0  0  0  0  0  0  0  0  0  0  0  0
    0.1570   -0.7460    0.7152 H   0  0  0  0  0  0  0  0  0  0  0  0
    4.1864   -3.7187   -6.1759 H   0  0  0  0  0  0  0  0  0  0  0  0
    4.2219    1.5242   -8.4161 H   0  0  0  0  0  0  0  0  0  0  0  0
    6.2470   -2.1162  -10.6164 H   0  0  0  0  0  0  0  0  0  0  0  0
    4.7597   -2.7200   -9.8415 H   0  0  0  0  0  0  0  0  0  0  0  0
    4.6365   -2.7302  -12.3588 H   0  0  0  0  0  0  0  0  0  0  0  0
    3.3844   -1.7159  -11.6013 H   0  0  0  0  0  0  0  0  0  0  0  0
    6.0421   -0.7075  -12.7142 H   0  0  0  0  0  0  0  0  0  0  0  0
    5.0278    1.5314  -12.3247 H   0  0  0  0  0  0  0  0  0  0  0  0
    3.6108    0.7502  -11.5815 H   0  0  0  0  0  0  0  0  0  0  0  0
    5.1338    1.4594   -9.8116 H   0  0  0  0  0  0  0  0  0  0  0  0
    6.4913    0.6121  -10.5969 H   0  0  0  0  0  0  0  0  0  0  0  0
    4.5834    0.2083  -14.3691 H   0  0  0  0  0  0  0  0  0  0  0  0
    1.5341    2.0875   -4.7943 H   0  0  0  0  0  0  0  0  0  0  0  0
    2.5399    0.7108   -4.2747 H   0  0  0  0  0  0  0  0  0  0  0  0
    2.7228    2.7025   -2.7412 H   0  0  0  0  0  0  0  0  0  0  0  0
    4.2798    2.2323   -3.4658 H   0  0  0  0  0  0  0  0  0  0  0  0
    2.4409    4.4371   -4.5033 H   0  0  0  0  0  0  0  0  0  0  0  0
    4.3734    4.9575   -5.9825 H   0  0  0  0  0  0  0  0  0  0  0  0
    5.2350    3.5373   -5.3415 H   0  0  0  0  0  0  0  0  0  0  0  0
    4.1673    2.9224   -7.4479 H   0  0  0  0  0  0  0  0  0  0  0  0
    2.5964    3.5313   -6.8657 H   0  0  0  0  0  0  0  0  0  0  0  0
    4.2097    5.8041   -3.6620 H   0  0  0  0  0  0  0  0  0  0  0  0
    1.6129   -5.3429   -1.6395 H   0  0  0  0  0  0  0  0  0  0  0  0
    3.3600   -5.6733   -1.7224 H   0  0  0  0  0  0  0  0  0  0  0  0
    2.7207   -4.5714   -0.4793 H   0  0  0  0  0  0  0  0  0  0  0  0
  1  2  1  0  0  0  0
  1 33  1  0  0  0  0
  1 34  1  0  0  0  0
  1 35  1  0  0  0  0
  2  3  1  0  0  0  0
  2 36  1  0  0  0  0
  2 37  1  0  0  0  0
  3  4  1  0  0  0  0
  4  5  2  0  0  0  0
  4  6  1  0  0  0  0
  6 10  1  0  0  0  0
  6  7  2  0  0  0  0
  7  8  1  0  0  0  0
  7 32  1  0  0  0  0
  8  9  2  0  0  0  0
  9 10  1  0  0  0  0
  9 11  1  0  0  0  0
 11 12  1  0  0  0  0
 11 38  1  0  0  0  0
 12 17  2  0  0  0  0
 12 13  1  0  0  0  0
 13 14  2  0  0  0  0
 14 15  1  0  0  0  0
 14 25  1  0  0  0  0
 15 16  2  0  0  0  0
 15 39  1  0  0  0  0
 16 17  1  0  0  0  0
 16 18  1  0  0  0  0
 18 23  1  0  0  0  0
 18 19  1  0  0  0  0
 19 20  1  0  0  0  0
 19 40  1  0  0  0  0
 19 41  1  0  0  0  0
 20 21  1  0  0  0  0
 20 42  1  0  0  0  0
 20 43  1  0  0  0  0
 21 22  1  0  0  0  0
 21 24  1  0  0  0  0
 21 44  1  0  0  0  0
 22 23  1  0  0  0  0
 22 45  1  0  0  0  0
 22 46  1  0  0  0  0
 23 47  1  0  0  0  0
 23 48  1  0  0  0  0
 24 49  1  0  0  0  0
 25 30  1  0  0  0  0
 25 26  1  0  0  0  0
 26 27  1  0  0  0  0
 26 50  1  0  0  0  0
 26 51  1  0  0  0  0
 27 28  1  0  0  0  0
 27 52  1  0  0  0  0
 27 53  1  0  0  0  0
 28 29  1  0  0  0  0
 28 31  1  0  0  0  0
 28 54  1  0  0  0  0
 29 30  1  0  0  0  0
 29 55  1  0  0  0  0
 29 56  1  0  0  0  0
 30 57  1  0  0  0  0
 30 58  1  0  0  0  0
 31 59  1  0  0  0  0
 32 60  1  0  0  0  0
 32 61  1  0  0  0  0
 32 62  1  0  0  0  0
M  END
$$$$
CHEMBL295224
  -OEChem-07121202283D

 50 53  0     0  0  0  0  0  0999 V2000
   -0.1011    1.5514   -0.0653 C   0  0  0  0  0  0  0  0  0  0  0  0
   -0.0623    0.0220   -0.0559 C   0  0  0  0  0  0  0  0  0  0  0  0
    0.6626   -0.4775   -1.3074 C   0  0  0  0  0  0  0  0  0  0  0  0
    0.6988   -1.9060   -1.2987 O   0  0  0  0  0  0  0  0  0  0  0  0
    1.3116   -2.5136   -2.3473 C   0  0  0  0  0  0  0  0  0  0  0  0
    1.8718   -1.7517   -3.3609 C   0  0  0  0  0  0  0  0  0  0  0  0
    2.4953   -2.3672   -4.4278 C   0  0  0  0  0  0  0  0  0  0  0  0
    2.5664   -3.7548   -4.4942 C   0  0  0  0  0  0  0  0  0  0  0  0
    2.0112   -4.5283   -3.4889 C   0  0  0  0  0  0  0  0  0  0  0  0
    1.3841   -3.9115   -2.4040 C   0  0  0  0  0  0  0  0  0  0  0  0
    0.7950   -4.7286   -1.3259 C   0  0  0  0  0  0  0  0  0  0  0  0
    0.2033   -4.1184   -0.3265 N   0  0  0  0  0  0  0  0  0  0  0  0
   -0.3528   -4.7966    0.6848 C   0  0  0  0  0  0  0  0  0  0  0  0
   -0.3043   -6.2012    0.6810 C   0  0  0  0  0  0  0  0  0  0  0  0
   -0.9565   -6.6441    1.8468 C   0  0  0  0  0  0  0  0  0  0  0  0
   -1.3697   -5.5989    2.5090 N   0  0  0  0  0  0  0  0  0  0  0  0
   -1.0125   -4.4347    1.8174 N   0  0  0  0  0  0  0  0  0  0  0  0
   -1.2996   -3.0623    2.2418 C   0  0  0  0  0  0  0  0  0  0  0  0
   -1.1461   -8.0811    2.2595 C   0  0  0  0  0  0  0  0  0  0  0  0
    0.3585   -6.8690   -0.4386 C   0  0  0  0  0  0  0  0  0  0  0  0
    0.8836   -6.0899   -1.4128 N   0  0  0  0  0  0  0  0  0  0  0  0
    0.4312   -8.0839   -0.4948 O   0  0  0  0  0  0  0  0  0  0  0  0
    3.2001   -4.3707   -5.5801 N   0  0  0  0  0  0  0  0  0  0  0  0
    4.1874   -3.6867   -6.2917 C   0  0  0  0  0  0  0  0  0  0  0  0
    4.7824   -4.1208   -7.4084 N   0  0  0  0  0  0  0  0  0  0  0  0
    5.6620   -3.2308   -7.8159 C   0  0  0  0  0  0  0  0  0  0  0  0
    5.6407   -2.1968   -6.9492 N   0  0  0  0  0  0  0  0  0  0  0  0
    6.1813   -1.3925   -6.9914 H   0  0  0  0  0  0  0  0  0  0  0  0
    4.6777   -2.5121   -5.9772 N   0  0  0  0  0  0  0  0  0  0  0  0
    6.4673   -3.3369   -8.9352 N   0  0  0  0  0  0  0  0  0  0  0  0
    0.9170    1.9407   -0.0751 H   0  0  0  0  0  0  0  0  0  0  0  0
   -0.6304    1.8961   -0.9536 H   0  0  0  0  0  0  0  0  0  0  0  0
   -0.6175    1.9072    0.8263 H   0  0  0  0  0  0  0  0  0  0  0  0
    0.4671   -0.3227    0.8324 H   0  0  0  0  0  0  0  0  0  0  0  0
   -1.0804   -0.3673   -0.0461 H   0  0  0  0  0  0  0  0  0  0  0  0
    0.1333   -0.1328   -2.1957 H   0  0  0  0  0  0  0  0  0  0  0  0
    1.6807   -0.0882   -1.3172 H   0  0  0  0  0  0  0  0  0  0  0  0
    1.8200   -0.6739   -3.3160 H   0  0  0  0  0  0  0  0  0  0  0  0
    2.9297   -1.7685   -5.2148 H   0  0  0  0  0  0  0  0  0  0  0  0
    2.0662   -5.6056   -3.5416 H   0  0  0  0  0  0  0  0  0  0  0  0
   -2.2624   -2.7506    1.8369 H   0  0  0  0  0  0  0  0  0  0  0  0
   -1.3317   -3.0178    3.3305 H   0  0  0  0  0  0  0  0  0  0  0  0
   -0.5183   -2.3972    1.8739 H   0  0  0  0  0  0  0  0  0  0  0  0
   -0.2999   -8.3988    2.8688 H   0  0  0  0  0  0  0  0  0  0  0  0
   -2.0655   -8.1749    2.8373 H   0  0  0  0  0  0  0  0  0  0  0  0
   -1.2098   -8.7089    1.3707 H   0  0  0  0  0  0  0  0  0  0  0  0
    2.9533   -5.2726   -5.8379 H   0  0  0  0  0  0  0  0  0  0  0  0
    6.4109   -4.1231   -9.5005 H   0  0  0  0  0  0  0  0  0  0  0  0
    7.0886   -2.6251   -9.1550 H   0  0  0  0  0  0  0  0  0  0  0  0
    1.3271   -6.4983   -2.1726 H   0  0  0  0  0  0  0  0  0  0  0  0
  1  2  1  0  0  0  0
  1 31  1  0  0  0  0
  1 32  1  0  0  0  0
  1 33  1  0  0  0  0
  2  3  1  0  0  0  0
  2 34  1  0  0  0  0
  2 35  1  0  0  0  0
  3  4  1  0  0  0  0
  3 36  1  0  0  0  0
  3 37  1  0  0  0  0
  4  5  1  0  0  0  0
  5 10  2  0  0  0  0
  5  6  1  0  0  0  0
  6  7  2  0  0  0  0
  6 38  1  0  0  0  0
  7  8  1  0  0  0  0
  7 39  1  0  0  0  0
  8  9  2  0  0  0  0
  8 23  1  0  0  0  0
  9 10  1  0  0  0  0
  9 40  1  0  0  0  0
 10 11  1  0  0  0  0
 11 21  1  0  0  0  0
 11 12  2  0  0  0  0
 12 13  1  0  0  0  0
 13 17  1  0  0  0  0
 13 14  2  0  0  0  0
 14 15  1  0  0  0  0
 14 20  1  0  0  0  0
 15 16  2  0  0  0  0
 15 19  1  0  0  0  0
 16 17  1  0  0  0  0
 17 18  1  0  0  0  0
 18 41  1  0  0  0  0
 18 42  1  0  0  0  0
 18 43  1  0  0  0  0
 19 44  1  0  0  0  0
 19 45  1  0  0  0  0
 19 46  1  0  0  0  0
 20 21  1  0  0  0  0
 20 22  2  0  0  0  0
 21 50  1  0  0  0  0
 23 24  1  0  0  0  0
 23 47  1  0  0  0  0
 24 29  2  0  0  0  0
 24 25  1  0  0  0  0
 25 26  2  0  0  0  0
 26 27  1  0  0  0  0
 26 30  1  0  0  0  0
 27 28  1  0  0  0  0
 27 29  1  0  0  0  0
 30 48  1  0  0  0  0
 30 49  1  0  0  0  0
M  END
$$$$
CHEMBL353248
  -OEChem-07121202283D

 43 45  0     0  0  0  0  0  0999 V2000
   -0.0187    1.5258    0.0104 C   0  0  0  0  0  0  0  0  0  0  0  0
    0.0021   -0.0041    0.0020 C   0  0  0  0  0  0  0  0  0  0  0  0
   -1.4333   -0.5336    0.0129 C   0  0  0  0  0  0  0  0  0  0  0  0
   -1.4134   -1.9985    0.0048 N   0  0  0  0  0  0  0  0  0  0  0  0
   -1.5028   -2.8002   -1.0943 C   0  0  0  0  0  0  0  0  0  0  0  0
   -1.4518   -4.0502   -0.7344 N   0  0  0  0  0  0  0  0  0  0  0  0
   -1.3272   -4.1248    0.6114 C   0  0  0  0  0  0  0  0  0  0  0  0
   -1.2958   -2.8129    1.0991 C   0  0  0  0  0  0  0  0  0  0  0  0
   -1.1721   -2.5963    2.4125 N   0  0  0  0  0  0  0  0  0  0  0  0
   -1.0758   -3.5958    3.2610 C   0  0  0  0  0  0  0  0  0  0  0  0
   -1.0967   -4.8985    2.8473 N   0  0  0  0  0  0  0  0  0  0  0  0
   -1.0236   -5.6134    3.4988 H   0  0  0  0  0  0  0  0  0  0  0  0
   -1.2270   -5.1945    1.5349 C   0  0  0  0  0  0  0  0  0  0  0  0
   -1.2453   -6.3525    1.1544 O   0  0  0  0  0  0  0  0  0  0  0  0
   -0.9410   -3.3032    4.7009 C   0  0  0  0  0  0  0  0  0  0  0  0
   -0.8313   -4.3471    5.6225 C   0  0  0  0  0  0  0  0  0  0  0  0
   -0.7051   -4.0670    6.9662 C   0  0  0  0  0  0  0  0  0  0  0  0
   -0.6866   -2.7543    7.4075 C   0  0  0  0  0  0  0  0  0  0  0  0
   -0.7943   -1.7129    6.5066 C   0  0  0  0  0  0  0  0  0  0  0  0
   -0.9165   -1.9764    5.1510 C   0  0  0  0  0  0  0  0  0  0  0  0
   -1.0168   -0.9539    4.2642 O   0  0  0  0  0  0  0  0  0  0  0  0
   -0.9843    0.3720    4.7964 C   0  0  0  0  0  0  0  0  0  0  0  0
   -1.1090    1.3829    3.6548 C   0  0  0  0  0  0  0  0  0  0  0  0
   -1.0743    2.8025    4.2245 C   0  0  0  0  0  0  0  0  0  0  0  0
    1.0039    1.9031    0.0027 H   0  0  0  0  0  0  0  0  0  0  0  0
   -0.5459    1.8868   -0.8726 H   0  0  0  0  0  0  0  0  0  0  0  0
   -0.5289    1.8773    0.9072 H   0  0  0  0  0  0  0  0  0  0  0  0
    0.5123   -0.3556   -0.8948 H   0  0  0  0  0  0  0  0  0  0  0  0
    0.5293   -0.3651    0.8851 H   0  0  0  0  0  0  0  0  0  0  0  0
   -1.9435   -0.1821    0.9097 H   0  0  0  0  0  0  0  0  0  0  0  0
   -1.9605   -0.1726   -0.8702 H   0  0  0  0  0  0  0  0  0  0  0  0
   -1.6015   -2.4505   -2.1113 H   0  0  0  0  0  0  0  0  0  0  0  0
   -0.8456   -5.3722    5.2827 H   0  0  0  0  0  0  0  0  0  0  0  0
   -0.6206   -4.8748    7.6781 H   0  0  0  0  0  0  0  0  0  0  0  0
   -0.5878   -2.5438    8.4621 H   0  0  0  0  0  0  0  0  0  0  0  0
   -0.7795   -0.6918    6.8583 H   0  0  0  0  0  0  0  0  0  0  0  0
   -1.8134    0.5048    5.4915 H   0  0  0  0  0  0  0  0  0  0  0  0
   -0.0418    0.5301    5.3205 H   0  0  0  0  0  0  0  0  0  0  0  0
   -0.2800    1.2501    2.9596 H   0  0  0  0  0  0  0  0  0  0  0  0
   -2.0515    1.2247    3.1306 H   0  0  0  0  0  0  0  0  0  0  0  0
   -1.9033    2.9353    4.9197 H   0  0  0  0  0  0  0  0  0  0  0  0
   -0.1318    2.9606    4.7487 H   0  0  0  0  0  0  0  0  0  0  0  0
   -1.1631    3.5227    3.4112 H   0  0  0  0  0  0  0  0  0  0  0  0
  1  2  1  0  0  0  0
  1 25  1  0  0  0  0
  1 26  1  0  0  0  0
  1 27  1  0  0  0  0
  2  3  1  0  0  0  0
  2 28  1  0  0  0  0
  2 29  1  0  0  0  0
  3  4  1  0  0  0  0
  3 30  1  0  0  0  0
  3 31  1  0  0  0  0
  4  8  1  0  0  0  0
  4  5  1  0  0  0  0
  5  6  2  0  0  0  0
  5 32  1  0  0  0  0
  6  7  1  0  0  0  0
  7 13  1  0  0  0  0
  7  8  2  0  0  0  0
  8  9  1  0  0  0  0
  9 10  2  0  0  0  0
 10 11  1  0  0  0  0
 10 15  1  0  0  0  0
 11 12  1  0  0  0  0
 11 13  1  0  0  0  0
 13 14  2  0  0  0  0
 15 20  2  0  0  0  0
 15 16  1  0  0  0  0
 16 17  2  0  0  0  0
 16 33  1  0  0  0  0
 17 18  1  0  0  0  0
 17 34  1  0  0  0  0
 18 19  2  0  0  0  0
 18 35  1  0  0  0  0
 19 20  1  0  0  0  0
 19 36  1  0  0  0  0
 20 21  1  0  0  0  0
 21 22  1  0  0  0  0
 22 23  1  0  0  0  0
 22 37  1  0  0  0  0
 22 38  1  0  0  0  0
 23 24  1  0  0  0  0
 23 39  1  0  0  0  0
 23 40  1  0  0  0  0
 24 41  1  0  0  0  0
 24 42  1  0  0  0  0
 24 43  1  0  0  0  0
M  END
$$$$
CHEMBL213099
  -OEChem-07121202283D

 47 51  0     0  0  0  0  0  0999 V2000
   -0.0184    1.5028    0.0103 C   0  0  0  0  0  0  0  0  0  0  0  0
    0.0021   -0.0041    0.0020 C   0  0  0  0  0  0  0  0  0  0  0  0
   -1.2118   -0.7183    0.0040 C   0  0  0  0  0  0  0  0  0  0  0  0
   -2.5168   -0.0582    0.0134 C   0  0  0  0  0  0  0  0  0  0  0  0
   -2.9380    1.2501    0.0219 C   0  0  0  0  0  0  0  0  0  0  0  0
   -4.3390    1.2424    0.0278 C   0  0  0  0  0  0  0  0  0  0  0  0
   -4.7543   -0.0112    0.0231 N   0  0  0  0  0  0  0  0  0  0  0  0
   -3.6395   -0.8571    0.0140 N   0  0  0  0  0  0  0  0  0  0  0  0
   -3.5024   -2.2151    0.0064 C   0  0  0  0  0  0  0  0  0  0  0  0
   -2.3459   -2.8078   -0.0011 N   0  0  0  0  0  0  0  0  0  0  0  0
   -1.1897   -2.1243   -0.0038 C   0  0  0  0  0  0  0  0  0  0  0  0
    0.1123   -2.7930   -0.0132 C   0  0  0  0  0  0  0  0  0  0  0  0
    0.1898   -4.0098   -0.0206 O   0  0  0  0  0  0  0  0  0  0  0  0
    1.2260   -2.0282   -0.0140 N   0  0  0  0  0  0  0  0  0  0  0  0
    1.1425   -0.6340   -0.0123 N   0  0  0  0  0  0  0  0  0  0  0  0
    2.5422   -2.6715   -0.0233 C   0  0  0  0  0  0  0  0  0  0  0  0
    2.9872   -2.8843   -1.4473 C   0  0  0  0  0  0  0  0  0  0  0  0
    2.6689   -4.0522   -2.1233 C   0  0  0  0  0  0  0  0  0  0  0  0
    3.0942   -4.2122   -3.4285 C   0  0  0  0  0  0  0  0  0  0  0  0
    3.7947   -3.2706   -4.0299 N   0  0  0  0  0  0  0  0  0  0  0  0
    4.1157   -2.1474   -3.4179 C   0  0  0  0  0  0  0  0  0  0  0  0
    3.7198   -1.9145   -2.1145 C   0  0  0  0  0  0  0  0  0  0  0  0
   -4.7471   -3.0647    0.0073 C   0  0  0  0  0  0  0  0  0  0  0  0
   -5.2112    2.4432    0.0385 C   0  0  0  0  0  0  0  0  0  0  0  0
   -4.6470    3.7171    0.0376 C   0  0  0  0  0  0  0  0  0  0  0  0
   -5.4628    4.8304    0.0476 C   0  0  0  0  0  0  0  0  0  0  0  0
   -6.8380    4.6831    0.0589 C   0  0  0  0  0  0  0  0  0  0  0  0
   -7.4035    3.4207    0.0602 C   0  0  0  0  0  0  0  0  0  0  0  0
   -6.5971    2.3006    0.0436 C   0  0  0  0  0  0  0  0  0  0  0  0
    1.0042    1.8801    0.0026 H   0  0  0  0  0  0  0  0  0  0  0  0
   -0.5455    1.8639   -0.8728 H   0  0  0  0  0  0  0  0  0  0  0  0
   -0.5286    1.8543    0.9071 H   0  0  0  0  0  0  0  0  0  0  0  0
   -2.3045    2.1247    0.0240 H   0  0  0  0  0  0  0  0  0  0  0  0
    3.2617   -2.0342    0.4908 H   0  0  0  0  0  0  0  0  0  0  0  0
    2.4801   -3.6334    0.4856 H   0  0  0  0  0  0  0  0  0  0  0  0
    2.0960   -4.8273   -1.6360 H   0  0  0  0  0  0  0  0  0  0  0  0
    2.8504   -5.1190   -3.9620 H   0  0  0  0  0  0  0  0  0  0  0  0
    4.6910   -1.3992   -3.9429 H   0  0  0  0  0  0  0  0  0  0  0  0
    3.9815   -0.9905   -1.6203 H   0  0  0  0  0  0  0  0  0  0  0  0
   -5.0515   -3.2643   -1.0201 H   0  0  0  0  0  0  0  0  0  0  0  0
   -4.5432   -4.0073    0.5155 H   0  0  0  0  0  0  0  0  0  0  0  0
   -5.5467   -2.5372    0.5273 H   0  0  0  0  0  0  0  0  0  0  0  0
   -3.5733    3.8332    0.0296 H   0  0  0  0  0  0  0  0  0  0  0  0
   -5.0265    5.8184    0.0470 H   0  0  0  0  0  0  0  0  0  0  0  0
   -7.4727    5.5569    0.0670 H   0  0  0  0  0  0  0  0  0  0  0  0
   -8.4779    3.3114    0.0697 H   0  0  0  0  0  0  0  0  0  0  0  0
   -7.0396    1.3155    0.0397 H   0  0  0  0  0  0  0  0  0  0  0  0
  1  2  1  0  0  0  0
  1 30  1  0  0  0  0
  1 31  1  0  0  0  0
  1 32  1  0  0  0  0
  2 15  2  0  0  0  0
  2  3  1  0  0  0  0
  3 11  2  0  0  0  0
  3  4  1  0  0  0  0
  4  8  1  0  0  0  0
  4  5  2  0  0  0  0
  5  6  1  0  0  0  0
  5 33  1  0  0  0  0
  6  7  2  0  0  0  0
  6 24  1  0  0  0  0
  7  8  1  0  0  0  0
  8  9  1  0  0  0  0
  9 10  2  0  0  0  0
  9 23  1  0  0  0  0
 10 11  1  0  0  0  0
 11 12  1  0  0  0  0
 12 13  2  0  0  0  0
 12 14  1  0  0  0  0
 14 15  1  0  0  0  0
 14 16  1  0  0  0  0
 16 17  1  0  0  0  0
 16 34  1  0  0  0  0
 16 35  1  0  0  0  0
 17 22  2  0  0  0  0
 17 18  1  0  0  0  0
 18 19  2  0  0  0  0
 18 36  1  0  0  0  0
 19 20  1  0  0  0  0
 19 37  1  0  0  0  0
 20 21  2  0  0  0  0
 21 22  1  0  0  0  0
 21 38  1  0  0  0  0
 22 39  1  0  0  0  0
 23 40  1  0  0  0  0
 23 41  1  0  0  0  0
 23 42  1  0  0  0  0
 24 29  2  0  0  0  0
 24 25  1  0  0  0  0
 25 26  2  0  0  0  0
 25 43  1  0  0  0  0
 26 27  1  0  0  0  0
 26 44  1  0  0  0  0
 27 28  2  0  0  0  0
 27 45  1  0  0  0  0
 28 29  1  0  0  0  0
 28 46  1  0  0  0  0
 29 47  1  0  0  0  0
M  END
$$$$
CHEMBL132689
  -OEChem-07121202283D

 47 52  0     1  0  0  0  0  0999 V2000
   -0.0165    1.3628    0.0095 C   0  0  0  0  0  0  0  0  0  0  0  0
    1.1698    2.0838    0.0021 C   0  0  0  0  0  0  0  0  0  0  0  0
    2.3862    1.4376   -0.0135 C   0  0  0  0  0  0  0  0  0  0  0  0
    2.4284    0.0458   -0.0214 C   0  0  0  0  0  0  0  0  0  0  0  0
    1.2231   -0.6777   -0.0133 C   0  0  0  0  0  0  0  0  0  0  0  0
    0.0021   -0.0041    0.0020 C   0  0  0  0  0  0  0  0  0  0  0  0
    1.2934   -2.1480   -0.0219 C   0  0  0  0  0  0  0  0  0  0  0  0
    2.5744   -2.7535   -0.0380 C   0  0  0  0  0  0  0  0  0  0  0  0
    3.6874   -1.9921   -0.0449 C   0  0  0  0  0  0  0  0  0  0  0  0
    3.6240   -0.6315   -0.0374 N   0  0  0  0  0  0  0  0  0  0  0  0
    4.9010   -2.8944   -0.0614 C   0  0  2  0  0  0  0  0  0  0  0  0
    4.4244   -4.2808   -0.0638 N   0  0  0  0  0  0  0  0  0  0  0  0
    2.9595   -4.2121   -0.0492 C   0  0  0  0  0  0  0  0  0  0  0  0
    5.2017   -5.4259   -0.0782 C   0  0  0  0  0  0  0  0  0  0  0  0
    6.5217   -5.3114   -0.0859 N   0  0  0  0  0  0  0  0  0  0  0  0
    7.2934   -6.3857   -0.0992 C   0  0  0  0  0  0  0  0  0  0  0  0
    6.7052   -7.6407   -0.1050 C   0  0  0  0  0  0  0  0  0  0  0  0
    5.3217   -7.7241   -0.0966 C   0  0  0  0  0  0  0  0  0  0  0  0
    4.6082   -6.6104   -0.0783 N   0  0  0  0  0  0  0  0  0  0  0  0
    5.7400   -2.6447    1.1653 C   0  0  0  0  0  0  0  0  0  0  0  0
    5.3882   -3.2158    2.3746 C   0  0  0  0  0  0  0  0  0  0  0  0
    6.1550   -2.9939    3.4994 C   0  0  0  0  0  0  0  0  0  0  0  0
    7.2913   -2.1917    3.4267 C   0  0  0  0  0  0  0  0  0  0  0  0
    7.6303   -1.6177    2.2084 C   0  0  0  0  0  0  0  0  0  0  0  0
    6.8682   -1.8480    1.0843 C   0  0  0  0  0  0  0  0  0  0  0  0
    8.8804   -0.7910    2.4391 C   0  0  0  0  0  0  0  0  0  0  0  0
    8.9149   -0.6868    3.9822 C   0  0  0  0  0  0  0  0  0  0  0  0
    8.1857   -1.8547    4.3962 O   0  0  0  0  0  0  0  0  0  0  0  0
    0.2786   -2.8253   -0.0151 O   0  0  0  0  0  0  0  0  0  0  0  0
   -0.9613    1.8858    0.0259 H   0  0  0  0  0  0  0  0  0  0  0  0
    1.1386    3.1633    0.0082 H   0  0  0  0  0  0  0  0  0  0  0  0
    3.3032    2.0080   -0.0199 H   0  0  0  0  0  0  0  0  0  0  0  0
   -0.9242   -0.5595    0.0083 H   0  0  0  0  0  0  0  0  0  0  0  0
    5.4905   -2.7047   -0.9584 H   0  0  0  0  0  0  0  0  0  0  0  0
    2.5749   -4.7034    0.8446 H   0  0  0  0  0  0  0  0  0  0  0  0
    2.5575   -4.6942   -0.9403 H   0  0  0  0  0  0  0  0  0  0  0  0
    8.3688   -6.2860   -0.1059 H   0  0  0  0  0  0  0  0  0  0  0  0
    7.3118   -8.5342   -0.1162 H   0  0  0  0  0  0  0  0  0  0  0  0
    4.8322   -8.6868   -0.1011 H   0  0  0  0  0  0  0  0  0  0  0  0
    4.5081   -3.8385    2.4387 H   0  0  0  0  0  0  0  0  0  0  0  0
    5.8735   -3.4442    4.4399 H   0  0  0  0  0  0  0  0  0  0  0  0
    7.1492   -1.4038    0.1408 H   0  0  0  0  0  0  0  0  0  0  0  0
    9.7638   -1.3076    2.0638 H   0  0  0  0  0  0  0  0  0  0  0  0
    8.7849    0.1949    1.9842 H   0  0  0  0  0  0  0  0  0  0  0  0
    9.9407   -0.7219    4.3489 H   0  0  0  0  0  0  0  0  0  0  0  0
    8.4140    0.2207    4.3193 H   0  0  0  0  0  0  0  0  0  0  0  0
    4.4504   -0.1236   -0.0431 H   0  0  0  0  0  0  0  0  0  0  0  0
  1  6  2  0  0  0  0
  1  2  1  0  0  0  0
  1 30  1  0  0  0  0
  2  3  2  0  0  0  0
  2 31  1  0  0  0  0
  3  4  1  0  0  0  0
  3 32  1  0  0  0  0
  4 10  1  0  0  0  0
  4  5  2  0  0  0  0
  5  6  1  0  0  0  0
  5  7  1  0  0  0  0
  6 33  1  0  0  0  0
  7  8  1  0  0  0  0
  7 29  2  0  0  0  0
  8 13  1  0  0  0  0
  8  9  2  0  0  0  0
  9 10  1  0  0  0  0
  9 11  1  0  0  0  0
 10 47  1  0  0  0  0
 11 12  1  0  0  0  0
 11 20  1  0  0  0  0
 11 34  1  0  0  0  0
 12 13  1  0  0  0  0
 12 14  1  0  0  0  0
 13 35  1  0  0  0  0
 13 36  1  0  0  0  0
 14 19  2  0  0  0  0
 14 15  1  0  0  0  0
 15 16  2  0  0  0  0
 16 17  1  0  0  0  0
 16 37  1  0  0  0  0
 17 18  2  0  0  0  0
 17 38  1  0  0  0  0
 18 19  1  0  0  0  0
 18 39  1  0  0  0  0
 20 25  2  0  0  0  0
 20 21  1  0  0  0  0
 21 22  2  0  0  0  0
 21 40  1  0  0  0  0
 22 23  1  0  0  0  0
 22 41  1  0  0  0  0
 23 28  1  0  0  0  0
 23 24  2  0  0  0  0
 24 25  1  0  0  0  0
 24 26  1  0  0  0  0
 25 42  1  0  0  0  0
 26 27  1  0  0  0  0
 26 43  1  0  0  0  0
 26 44  1  0  0  0  0
 27 28  1  0  0  0  0
 27 45  1  0  0  0  0
 27 46  1  0  0  0  0
M  END
$$$$
CHEMBL132689
  -OEChem-07121202283D

 47 52  0     1  0  0  0  0  0999 V2000
   -0.0165    1.3628    0.0095 C   0  0  0  0  0  0  0  0  0  0  0  0
    1.1698    2.0838    0.0021 C   0  0  0  0  0  0  0  0  0  0  0  0
    2.3862    1.4376   -0.0135 C   0  0  0  0  0  0  0  0  0  0  0  0
    2.4284    0.0458   -0.0214 C   0  0  0  0  0  0  0  0  0  0  0  0
    1.2231   -0.6777   -0.0133 C   0  0  0  0  0  0  0  0  0  0  0  0
    0.0021   -0.0041    0.0020 C   0  0  0  0  0  0  0  0  0  0  0  0
    1.2934   -2.1480   -0.0219 C   0  0  0  0  0  0  0  0  0  0  0  0
    2.5744   -2.7535   -0.0380 C   0  0  0  0  0  0  0  0  0  0  0  0
    3.6874   -1.9921   -0.0449 C   0  0  0  0  0  0  0  0  0  0  0  0
    3.6240   -0.6315   -0.0374 N   0  0  0  0  0  0  0  0  0  0  0  0
    4.9010   -2.8944   -0.0614 C   0  0  1  0  0  0  0  0  0  0  0  0
    4.4244   -4.2808   -0.0638 N   0  0  0  0  0  0  0  0  0  0  0  0
    2.9595   -4.2121   -0.0492 C   0  0  0  0  0  0  0  0  0  0  0  0
    5.2017   -5.4259   -0.0782 C   0  0  0  0  0  0  0  0  0  0  0  0
    6.5217   -5.3114   -0.0859 N   0  0  0  0  0  0  0  0  0  0  0  0
    7.2934   -6.3857   -0.0992 C   0  0  0  0  0  0  0  0  0  0  0  0
    6.7052   -7.6407   -0.1050 C   0  0  0  0  0  0  0  0  0  0  0  0
    5.3217   -7.7241   -0.0966 C   0  0  0  0  0  0  0  0  0  0  0  0
    4.6082   -6.6104   -0.0783 N   0  0  0  0  0  0  0  0  0  0  0  0
    5.7160   -2.6321   -1.3016 C   0  0  0  0  0  0  0  0  0  0  0  0
    5.3341   -3.1814   -2.5118 C   0  0  0  0  0  0  0  0  0  0  0  0
    6.0741   -2.9410   -3.6508 C   0  0  0  0  0  0  0  0  0  0  0  0
    7.2135   -2.1422   -3.5914 C   0  0  0  0  0  0  0  0  0  0  0  0
    7.5911   -1.6022   -2.3688 C   0  0  0  0  0  0  0  0  0  0  0  0
    6.8456   -1.8361   -1.2344 C   0  0  0  0  0  0  0  0  0  0  0  0
    8.8629   -0.8111   -2.6062 C   0  0  0  0  0  0  0  0  0  0  0  0
    9.3082   -1.3300   -3.9939 C   0  0  0  0  0  0  0  0  0  0  0  0
    8.0716   -1.7702   -4.5806 O   0  0  0  0  0  0  0  0  0  0  0  0
    0.2786   -2.8253   -0.0151 O   0  0  0  0  0  0  0  0  0  0  0  0
   -0.9613    1.8858    0.0259 H   0  0  0  0  0  0  0  0  0  0  0  0
    1.1386    3.1633    0.0082 H   0  0  0  0  0  0  0  0  0  0  0  0
    3.3032    2.0080   -0.0199 H   0  0  0  0  0  0  0  0  0  0  0  0
   -0.9242   -0.5595    0.0083 H   0  0  0  0  0  0  0  0  0  0  0  0
    5.5079   -2.7138    0.8259 H   0  0  0  0  0  0  0  0  0  0  0  0
    2.5749   -4.7034    0.8446 H   0  0  0  0  0  0  0  0  0  0  0  0
    2.5575   -4.6942   -0.9403 H   0  0  0  0  0  0  0  0  0  0  0  0
    8.3688   -6.2860   -0.1059 H   0  0  0  0  0  0  0  0  0  0  0  0
    7.3118   -8.5342   -0.1162 H   0  0  0  0  0  0  0  0  0  0  0  0
    4.8322   -8.6868   -0.1011 H   0  0  0  0  0  0  0  0  0  0  0  0
    4.4520   -3.8022   -2.5654 H   0  0  0  0  0  0  0  0  0  0  0  0
    5.7686   -3.3734   -4.5921 H   0  0  0  0  0  0  0  0  0  0  0  0
    7.1449   -1.4014   -0.2922 H   0  0  0  0  0  0  0  0  0  0  0  0
    8.6559    0.2586   -2.6383 H   0  0  0  0  0  0  0  0  0  0  0  0
    9.6108   -1.0390   -1.8468 H   0  0  0  0  0  0  0  0  0  0  0  0
    9.7505   -0.5265   -4.5829 H   0  0  0  0  0  0  0  0  0  0  0  0
   10.0042   -2.1623   -3.8899 H   0  0  0  0  0  0  0  0  0  0  0  0
    4.4504   -0.1236   -0.0431 H   0  0  0  0  0  0  0  0  0  0  0  0
  1  6  2  0  0  0  0
  1  2  1  0  0  0  0
  1 30  1  0  0  0  0
  2  3  2  0  0  0  0
  2 31  1  0  0  0  0
  3  4  1  0  0  0  0
  3 32  1  0  0  0  0
  4 10  1  0  0  0  0
  4  5  2  0  0  0  0
  5  6  1  0  0  0  0
  5  7  1  0  0  0  0
  6 33  1  0  0  0  0
  7  8  1  0  0  0  0
  7 29  2  0  0  0  0
  8 13  1  0  0  0  0
  8  9  2  0  0  0  0
  9 10  1  0  0  0  0
  9 11  1  0  0  0  0
 10 47  1  0  0  0  0
 11 12  1  0  0  0  0
 11 20  1  0  0  0  0
 11 34  1  0  0  0  0
 12 13  1  0  0  0  0
 12 14  1  0  0  0  0
 13 35  1  0  0  0  0
 13 36  1  0  0  0  0
 14 19  2  0  0  0  0
 14 15  1  0  0  0  0
 15 16  2  0  0  0  0
 16 17  1  0  0  0  0
 16 37  1  0  0  0  0
 17 18  2  0  0  0  0
 17 38  1  0  0  0  0
 18 19  1  0  0  0  0
 18 39  1  0  0  0  0
 20 25  2  0  0  0  0
 20 21  1  0  0  0  0
 21 22  2  0  0  0  0
 21 40  1  0  0  0  0
 22 23  1  0  0  0  0
 22 41  1  0  0  0  0
 23 28  1  0  0  0  0
 23 24  2  0  0  0  0
 24 25  1  0  0  0  0
 24 26  1  0  0  0  0
 25 42  1  0  0  0  0
 26 27  1  0  0  0  0
 26 43  1  0  0  0  0
 26 44  1  0  0  0  0
 27 28  1  0  0  0  0
 27 45  1  0  0  0  0
 27 46  1  0  0  0  0
M  END
$$$$
CHEMBL177427
  -OEChem-07121202283D

 56 62  0     1  0  0  0  0  0999 V2000
   -0.0165    1.3628    0.0095 C   0  0  0  0  0  0  0  0  0  0  0  0
    1.1698    2.0838    0.0021 C   0  0  0  0  0  0  0  0  0  0  0  0
    2.3862    1.4376   -0.0135 C   0  0  0  0  0  0  0  0  0  0  0  0
    2.4284    0.0458   -0.0214 C   0  0  0  0  0  0  0  0  0  0  0  0
    1.2231   -0.6777   -0.0133 C   0  0  0  0  0  0  0  0  0  0  0  0
    0.0021   -0.0041    0.0020 C   0  0  0  0  0  0  0  0  0  0  0  0
    1.2934   -2.1480   -0.0219 C   0  0  0  0  0  0  0  0  0  0  0  0
    2.5744   -2.7535   -0.0380 C   0  0  0  0  0  0  0  0  0  0  0  0
    3.6874   -1.9921   -0.0449 C   0  0  0  0  0  0  0  0  0  0  0  0
    3.6240   -0.6315   -0.0374 N   0  0  0  0  0  0  0  0  0  0  0  0
    4.9010   -2.8944   -0.0614 C   0  0  2  0  0  0  0  0  0  0  0  0
    4.4244   -4.2808   -0.0638 N   0  0  0  0  0  0  0  0  0  0  0  0
    2.9595   -4.2121   -0.0492 C   0  0  0  0  0  0  0  0  0  0  0  0
    5.2010   -5.4248   -0.0782 C   0  0  0  0  0  0  0  0  0  0  0  0
    6.5213   -5.3070   -0.0859 N   0  0  0  0  0  0  0  0  0  0  0  0
    7.2971   -6.3761   -0.0992 C   0  0  0  0  0  0  0  0  0  0  0  0
    6.7067   -7.6429   -0.1050 C   0  0  0  0  0  0  0  0  0  0  0  0
    5.3115   -7.7241   -0.0965 C   0  0  0  0  0  0  0  0  0  0  0  0
    4.6043   -6.6084   -0.0783 N   0  0  0  0  0  0  0  0  0  0  0  0
    7.5396   -8.8698   -0.1204 C   0  0  0  0  0  0  0  0  0  0  0  0
    8.9354   -8.7902   -0.1235 C   0  0  0  0  0  0  0  0  0  0  0  0
    9.6721   -9.9564   -0.1374 C   0  0  0  0  0  0  0  0  0  0  0  0
    9.0765  -11.1337   -0.1482 N   0  0  0  0  0  0  0  0  0  0  0  0
    7.7624  -11.2527   -0.1457 C   0  0  0  0  0  0  0  0  0  0  0  0
    6.9505  -10.1377   -0.1262 C   0  0  0  0  0  0  0  0  0  0  0  0
    5.7400   -2.6447    1.1653 C   0  0  0  0  0  0  0  0  0  0  0  0
    5.3882   -3.2158    2.3746 C   0  0  0  0  0  0  0  0  0  0  0  0
    6.1550   -2.9939    3.4994 C   0  0  0  0  0  0  0  0  0  0  0  0
    7.2913   -2.1917    3.4267 C   0  0  0  0  0  0  0  0  0  0  0  0
    7.6303   -1.6177    2.2084 C   0  0  0  0  0  0  0  0  0  0  0  0
    6.8682   -1.8480    1.0843 C   0  0  0  0  0  0  0  0  0  0  0  0
    8.8804   -0.7910    2.4391 C   0  0  0  0  0  0  0  0  0  0  0  0
    8.9149   -0.6868    3.9822 C   0  0  0  0  0  0  0  0  0  0  0  0
    8.1857   -1.8547    4.3962 O   0  0  0  0  0  0  0  0  0  0  0  0
    0.2786   -2.8253   -0.0151 O   0  0  0  0  0  0  0  0  0  0  0  0
   -0.9613    1.8858    0.0259 H   0  0  0  0  0  0  0  0  0  0  0  0
    1.1386    3.1633    0.0082 H   0  0  0  0  0  0  0  0  0  0  0  0
    3.3032    2.0080   -0.0199 H   0  0  0  0  0  0  0  0  0  0  0  0
   -0.9242   -0.5595    0.0083 H   0  0  0  0  0  0  0  0  0  0  0  0
    5.4905   -2.7047   -0.9584 H   0  0  0  0  0  0  0  0  0  0  0  0
    2.5749   -4.7034    0.8446 H   0  0  0  0  0  0  0  0  0  0  0  0
    2.5575   -4.6942   -0.9403 H   0  0  0  0  0  0  0  0  0  0  0  0
    8.3721   -6.2728   -0.1058 H   0  0  0  0  0  0  0  0  0  0  0  0
    4.8187   -8.6850   -0.1010 H   0  0  0  0  0  0  0  0  0  0  0  0
    9.4296   -7.8300   -0.1155 H   0  0  0  0  0  0  0  0  0  0  0  0
   10.7509   -9.9051   -0.1400 H   0  0  0  0  0  0  0  0  0  0  0  0
    7.3165  -12.2363   -0.1552 H   0  0  0  0  0  0  0  0  0  0  0  0
    5.8756  -10.2425   -0.1200 H   0  0  0  0  0  0  0  0  0  0  0  0
    4.5081   -3.8385    2.4387 H   0  0  0  0  0  0  0  0  0  0  0  0
    5.8735   -3.4442    4.4399 H   0  0  0  0  0  0  0  0  0  0  0  0
    7.1492   -1.4038    0.1408 H   0  0  0  0  0  0  0  0  0  0  0  0
    9.7638   -1.3076    2.0638 H   0  0  0  0  0  0  0  0  0  0  0  0
    8.7849    0.1949    1.9842 H   0  0  0  0  0  0  0  0  0  0  0  0
    9.9407   -0.7219    4.3489 H   0  0  0  0  0  0  0  0  0  0  0  0
    8.4140    0.2207    4.3193 H   0  0  0  0  0  0  0  0  0  0  0  0
    4.4504   -0.1236   -0.0431 H   0  0  0  0  0  0  0  0  0  0  0  0
  1  6  2  0  0  0  0
  1  2  1  0  0  0  0
  1 36  1  0  0  0  0
  2  3  2  0  0  0  0
  2 37  1  0  0  0  0
  3  4  1  0  0  0  0
  3 38  1  0  0  0  0
  4 10  1  0  0  0  0
  4  5  2  0  0  0  0
  5  6  1  0  0  0  0
  5  7  1  0  0  0  0
  6 39  1  0  0  0  0
  7  8  1  0  0  0  0
  7 35  2  0  0  0  0
  8 13  1  0  0  0  0
  8  9  2  0  0  0  0
  9 10  1  0  0  0  0
  9 11  1  0  0  0  0
 10 56  1  0  0  0  0
 11 12  1  0  0  0  0
 11 26  1  0  0  0  0
 11 40  1  0  0  0  0
 12 13  1  0  0  0  0
 12 14  1  0  0  0  0
 13 41  1  0  0  0  0
 13 42  1  0  0  0  0
 14 19  2  0  0  0  0
 14 15  1  0  0  0  0
 15 16  2  0  0  0  0
 16 17  1  0  0  0  0
 16 43  1  0  0  0  0
 17 18  2  0  0  0  0
 17 20  1  0  0  0  0
 18 19  1  0  0  0  0
 18 44  1  0  0  0  0
 20 25  2  0  0  0  0
 20 21  1  0  0  0  0
 21 22  2  0  0  0  0
 21 45  1  0  0  0  0
 22 23  1  0  0  0  0
 22 46  1  0  0  0  0
 23 24  2  0  0  0  0
 24 25  1  0  0  0  0
 24 47  1  0  0  0  0
 25 48  1  0  0  0  0
 26 31  2  0  0  0  0
 26 27  1  0  0  0  0
 27 28  2  0  0  0  0
 27 49  1  0  0  0  0
 28 29  1  0  0  0  0
 28 50  1  0  0  0  0
 29 34  1  0  0  0  0
 29 30  2  0  0  0  0
 30 31  1  0  0  0  0
 30 32  1  0  0  0  0
 31 51  1  0  0  0  0
 32 33  1  0  0  0  0
 32 52  1  0  0  0  0
 32 53  1  0  0  0  0
 33 34  1  0  0  0  0
 33 54  1  0  0  0  0
 33 55  1  0  0  0  0
M  END
$$$$
CHEMBL177427
  -OEChem-07121202283D

 56 62  0     1  0  0  0  0  0999 V2000
   -0.0165    1.3628    0.0095 C   0  0  0  0  0  0  0  0  0  0  0  0
    1.1698    2.0838    0.0021 C   0  0  0  0  0  0  0  0  0  0  0  0
    2.3862    1.4376   -0.0135 C   0  0  0  0  0  0  0  0  0  0  0  0
    2.4284    0.0458   -0.0214 C   0  0  0  0  0  0  0  0  0  0  0  0
    1.2231   -0.6777   -0.0133 C   0  0  0  0  0  0  0  0  0  0  0  0
    0.0021   -0.0041    0.0020 C   0  0  0  0  0  0  0  0  0  0  0  0
    1.2934   -2.1480   -0.0219 C   0  0  0  0  0  0  0  0  0  0  0  0
    2.5744   -2.7535   -0.0380 C   0  0  0  0  0  0  0  0  0  0  0  0
    3.6874   -1.9921   -0.0449 C   0  0  0  0  0  0  0  0  0  0  0  0
    3.6240   -0.6315   -0.0374 N   0  0  0  0  0  0  0  0  0  0  0  0
    4.9010   -2.8944   -0.0614 C   0  0  1  0  0  0  0  0  0  0  0  0
    4.4244   -4.2808   -0.0638 N   0  0  0  0  0  0  0  0  0  0  0  0
    2.9595   -4.2121   -0.0492 C   0  0  0  0  0  0  0  0  0  0  0  0
    5.2010   -5.4248   -0.0782 C   0  0  0  0  0  0  0  0  0  0  0  0
    6.5213   -5.3070   -0.0859 N   0  0  0  0  0  0  0  0  0  0  0  0
    7.2971   -6.3761   -0.0992 C   0  0  0  0  0  0  0  0  0  0  0  0
    6.7067   -7.6429   -0.1050 C   0  0  0  0  0  0  0  0  0  0  0  0
    5.3115   -7.7241   -0.0965 C   0  0  0  0  0  0  0  0  0  0  0  0
    4.6043   -6.6084   -0.0783 N   0  0  0  0  0  0  0  0  0  0  0  0
    7.5396   -8.8698   -0.1204 C   0  0  0  0  0  0  0  0  0  0  0  0
    8.9354   -8.7902   -0.1235 C   0  0  0  0  0  0  0  0  0  0  0  0
    9.6721   -9.9564   -0.1374 C   0  0  0  0  0  0  0  0  0  0  0  0
    9.0765  -11.1337   -0.1482 N   0  0  0  0  0  0  0  0  0  0  0  0
    7.7624  -11.2527   -0.1457 C   0  0  0  0  0  0  0  0  0  0  0  0
    6.9505  -10.1377   -0.1262 C   0  0  0  0  0  0  0  0  0  0  0  0
    5.7160   -2.6321   -1.3016 C   0  0  0  0  0  0  0  0  0  0  0  0
    5.3341   -3.1814   -2.5118 C   0  0  0  0  0  0  0  0  0  0  0  0
    6.0741   -2.9410   -3.6508 C   0  0  0  0  0  0  0  0  0  0  0  0
    7.2135   -2.1422   -3.5914 C   0  0  0  0  0  0  0  0  0  0  0  0
    7.5911   -1.6022   -2.3688 C   0  0  0  0  0  0  0  0  0  0  0  0
    6.8456   -1.8361   -1.2344 C   0  0  0  0  0  0  0  0  0  0  0  0
    8.8629   -0.8111   -2.6062 C   0  0  0  0  0  0  0  0  0  0  0  0
    9.3082   -1.3300   -3.9939 C   0  0  0  0  0  0  0  0  0  0  0  0
    8.0716   -1.7702   -4.5806 O   0  0  0  0  0  0  0  0  0  0  0  0
    0.2786   -2.8253   -0.0151 O   0  0  0  0  0  0  0  0  0  0  0  0
   -0.9613    1.8858    0.0259 H   0  0  0  0  0  0  0  0  0  0  0  0
    1.1386    3.1633    0.0082 H   0  0  0  0  0  0  0  0  0  0  0  0
    3.3032    2.0080   -0.0199 H   0  0  0  0  0  0  0  0  0  0  0  0
   -0.9242   -0.5595    0.0083 H   0  0  0  0  0  0  0  0  0  0  0  0
    5.5079   -2.7138    0.8259 H   0  0  0  0  0  0  0  0  0  0  0  0
    2.5749   -4.7034    0.8446 H   0  0  0  0  0  0  0  0  0  0  0  0
    2.5575   -4.6942   -0.9403 H   0  0  0  0  0  0  0  0  0  0  0  0
    8.3721   -6.2728   -0.1058 H   0  0  0  0  0  0  0  0  0  0  0  0
    4.8187   -8.6850   -0.1010 H   0  0  0  0  0  0  0  0  0  0  0  0
    9.4296   -7.8300   -0.1155 H   0  0  0  0  0  0  0  0  0  0  0  0
   10.7509   -9.9051   -0.1400 H   0  0  0  0  0  0  0  0  0  0  0  0
    7.3165  -12.2363   -0.1552 H   0  0  0  0  0  0  0  0  0  0  0  0
    5.8756  -10.2425   -0.1200 H   0  0  0  0  0  0  0  0  0  0  0  0
    4.4520   -3.8022   -2.5654 H   0  0  0  0  0  0  0  0  0  0  0  0
    5.7686   -3.3734   -4.5921 H   0  0  0  0  0  0  0  0  0  0  0  0
    7.1449   -1.4014   -0.2922 H   0  0  0  0  0  0  0  0  0  0  0  0
    8.6559    0.2586   -2.6383 H   0  0  0  0  0  0  0  0  0  0  0  0
    9.6108   -1.0390   -1.8468 H   0  0  0  0  0  0  0  0  0  0  0  0
    9.7505   -0.5265   -4.5829 H   0  0  0  0  0  0  0  0  0  0  0  0
   10.0042   -2.1623   -3.8899 H   0  0  0  0  0  0  0  0  0  0  0  0
    4.4504   -0.1236   -0.0431 H   0  0  0  0  0  0  0  0  0  0  0  0
  1  6  2  0  0  0  0
  1  2  1  0  0  0  0
  1 36  1  0  0  0  0
  2  3  2  0  0  0  0
  2 37  1  0  0  0  0
  3  4  1  0  0  0  0
  3 38  1  0  0  0  0
  4 10  1  0  0  0  0
  4  5  2  0  0  0  0
  5  6  1  0  0  0  0
  5  7  1  0  0  0  0
  6 39  1  0  0  0  0
  7  8  1  0  0  0  0
  7 35  2  0  0  0  0
  8 13  1  0  0  0  0
  8  9  2  0  0  0  0
  9 10  1  0  0  0  0
  9 11  1  0  0  0  0
 10 56  1  0  0  0  0
 11 12  1  0  0  0  0
 11 26  1  0  0  0  0
 11 40  1  0  0  0  0
 12 13  1  0  0  0  0
 12 14  1  0  0  0  0
 13 41  1  0  0  0  0
 13 42  1  0  0  0  0
 14 19  2  0  0  0  0
 14 15  1  0  0  0  0
 15 16  2  0  0  0  0
 16 17  1  0  0  0  0
 16 43  1  0  0  0  0
 17 18  2  0  0  0  0
 17 20  1  0  0  0  0
 18 19  1  0  0  0  0
 18 44  1  0  0  0  0
 20 25  2  0  0  0  0
 20 21  1  0  0  0  0
 21 22  2  0  0  0  0
 21 45  1  0  0  0  0
 22 23  1  0  0  0  0
 22 46  1  0  0  0  0
 23 24  2  0  0  0  0
 24 25  1  0  0  0  0
 24 47  1  0  0  0  0
 25 48  1  0  0  0  0
 26 31  2  0  0  0  0
 26 27  1  0  0  0  0
 27 28  2  0  0  0  0
 27 49  1  0  0  0  0
 28 29  1  0  0  0  0
 28 50  1  0  0  0  0
 29 34  1  0  0  0  0
 29 30  2  0  0  0  0
 30 31  1  0  0  0  0
 30 32  1  0  0  0  0
 31 51  1  0  0  0  0
 32 33  1  0  0  0  0
 32 52  1  0  0  0  0
 32 53  1  0  0  0  0
 33 34  1  0  0  0  0
 33 54  1  0  0  0  0
 33 55  1  0  0  0  0
M  END
$$$$
CHEMBL367206
  -OEChem-07121202283D

 57 63  0     1  0  0  0  0  0999 V2000
   -0.0165    1.3628    0.0095 C   0  0  0  0  0  0  0  0  0  0  0  0
    1.1698    2.0838    0.0021 C   0  0  0  0  0  0  0  0  0  0  0  0
    2.3862    1.4376   -0.0135 C   0  0  0  0  0  0  0  0  0  0  0  0
    2.4284    0.0458   -0.0214 C   0  0  0  0  0  0  0  0  0  0  0  0
    1.2231   -0.6777   -0.0133 C   0  0  0  0  0  0  0  0  0  0  0  0
    0.0021   -0.0041    0.0020 C   0  0  0  0  0  0  0  0  0  0  0  0
    1.2934   -2.1480   -0.0219 C   0  0  0  0  0  0  0  0  0  0  0  0
    2.5744   -2.7535   -0.0380 C   0  0  0  0  0  0  0  0  0  0  0  0
    3.6874   -1.9921   -0.0449 C   0  0  0  0  0  0  0  0  0  0  0  0
    3.6240   -0.6315   -0.0374 N   0  0  0  0  0  0  0  0  0  0  0  0
    4.9010   -2.8944   -0.0614 C   0  0  2  0  0  0  0  0  0  0  0  0
    4.4244   -4.2808   -0.0638 N   0  0  0  0  0  0  0  0  0  0  0  0
    2.9595   -4.2121   -0.0492 C   0  0  0  0  0  0  0  0  0  0  0  0
    5.2041   -5.4294   -0.0782 C   0  0  0  0  0  0  0  0  0  0  0  0
    6.5892   -5.3211    0.0191 C   0  0  0  0  0  0  0  0  0  0  0  0
    7.3574   -6.4677    0.0041 C   0  0  0  0  0  0  0  0  0  0  0  0
    6.7080   -7.7030   -0.1093 C   0  0  0  0  0  0  0  0  0  0  0  0
    5.3193   -7.7316   -0.2023 C   0  0  0  0  0  0  0  0  0  0  0  0
    4.6207   -6.6144   -0.1789 N   0  0  0  0  0  0  0  0  0  0  0  0
    7.4887   -8.9633   -0.1305 C   0  0  0  0  0  0  0  0  0  0  0  0
    6.8271  -10.1844   -0.2497 C   0  0  0  0  0  0  0  0  0  0  0  0
    7.5692  -11.3520   -0.2684 C   0  0  0  0  0  0  0  0  0  0  0  0
    8.9507  -11.2609   -0.1673 C   0  0  0  0  0  0  0  0  0  0  0  0
    9.5415  -10.0167   -0.0517 C   0  0  0  0  0  0  0  0  0  0  0  0
    8.8118   -8.9194   -0.0414 N   0  0  0  0  0  0  0  0  0  0  0  0
    5.7400   -2.6447    1.1653 C   0  0  0  0  0  0  0  0  0  0  0  0
    5.3716   -3.1912    2.3810 C   0  0  0  0  0  0  0  0  0  0  0  0
    6.1382   -2.9693    3.5059 C   0  0  0  0  0  0  0  0  0  0  0  0
    7.2912   -2.1918    3.4269 C   0  0  0  0  0  0  0  0  0  0  0  0
    7.6469   -1.6423    2.2020 C   0  0  0  0  0  0  0  0  0  0  0  0
    6.8848   -1.8727    1.0780 C   0  0  0  0  0  0  0  0  0  0  0  0
    8.9129   -0.8383    2.4265 C   0  0  0  0  0  0  0  0  0  0  0  0
    8.9432   -0.7130    3.9682 C   0  0  0  0  0  0  0  0  0  0  0  0
    8.1884   -1.8597    4.3954 O   0  0  0  0  0  0  0  0  0  0  0  0
    0.2786   -2.8253   -0.0151 O   0  0  0  0  0  0  0  0  0  0  0  0
   -0.9613    1.8858    0.0259 H   0  0  0  0  0  0  0  0  0  0  0  0
    1.1386    3.1633    0.0082 H   0  0  0  0  0  0  0  0  0  0  0  0
    3.3032    2.0080   -0.0199 H   0  0  0  0  0  0  0  0  0  0  0  0
   -0.9242   -0.5595    0.0083 H   0  0  0  0  0  0  0  0  0  0  0  0
    5.4905   -2.7047   -0.9584 H   0  0  0  0  0  0  0  0  0  0  0  0
    2.5749   -4.7034    0.8446 H   0  0  0  0  0  0  0  0  0  0  0  0
    2.5575   -4.6942   -0.9403 H   0  0  0  0  0  0  0  0  0  0  0  0
    7.0567   -4.3514    0.1049 H   0  0  0  0  0  0  0  0  0  0  0  0
    8.4336   -6.4133    0.0776 H   0  0  0  0  0  0  0  0  0  0  0  0
    4.8089   -8.6793   -0.2904 H   0  0  0  0  0  0  0  0  0  0  0  0
    5.7503  -10.2187   -0.3259 H   0  0  0  0  0  0  0  0  0  0  0  0
    7.0845  -12.3128   -0.3594 H   0  0  0  0  0  0  0  0  0  0  0  0
    9.5581  -12.1538   -0.1786 H   0  0  0  0  0  0  0  0  0  0  0  0
   10.6161   -9.9426    0.0271 H   0  0  0  0  0  0  0  0  0  0  0  0
    4.4786   -3.7947    2.4500 H   0  0  0  0  0  0  0  0  0  0  0  0
    5.8437   -3.4003    4.4514 H   0  0  0  0  0  0  0  0  0  0  0  0
    7.1787   -1.4477    0.1296 H   0  0  0  0  0  0  0  0  0  0  0  0
    9.7869   -1.3782    2.0623 H   0  0  0  0  0  0  0  0  0  0  0  0
    8.8396    0.1429    1.9573 H   0  0  0  0  0  0  0  0  0  0  0  0
    9.9666   -0.7641    4.3397 H   0  0  0  0  0  0  0  0  0  0  0  0
    8.4599    0.2094    4.2902 H   0  0  0  0  0  0  0  0  0  0  0  0
    4.4504   -0.1236   -0.0431 H   0  0  0  0  0  0  0  0  0  0  0  0
  1  6  2  0  0  0  0
  1  2  1  0  0  0  0
  1 36  1  0  0  0  0
  2  3  2  0  0  0  0
  2 37  1  0  0  0  0
  3  4  1  0  0  0  0
  3 38  1  0  0  0  0
  4 10  1  0  0  0  0
  4  5  2  0  0  0  0
  5  6  1  0  0  0  0
  5  7  1  0  0  0  0
  6 39  1  0  0  0  0
  7  8  1  0  0  0  0
  7 35  2  0  0  0  0
  8 13  1  0  0  0  0
  8  9  2  0  0  0  0
  9 10  1  0  0  0  0
  9 11  1  0  0  0  0
 10 57  1  0  0  0  0
 11 12  1  0  0  0  0
 11 26  1  0  0  0  0
 11 40  1  0  0  0  0
 12 13  1  0  0  0  0
 12 14  1  0  0  0  0
 13 41  1  0  0  0  0
 13 42  1  0  0  0  0
 14 19  2  0  0  0  0
 14 15  1  0  0  0  0
 15 16  2  0  0  0  0
 15 43  1  0  0  0  0
 16 17  1  0  0  0  0
 16 44  1  0  0  0  0
 17 18  2  0  0  0  0
 17 20  1  0  0  0  0
 18 19  1  0  0  0  0
 18 45  1  0  0  0  0
 20 25  2  0  0  0  0
 20 21  1  0  0  0  0
 21 22  2  0  0  0  0
 21 46  1  0  0  0  0
 22 23  1  0  0  0  0
 22 47  1  0  0  0  0
 23 24  2  0  0  0  0
 23 48  1  0  0  0  0
 24 25  1  0  0  0  0
 24 49  1  0  0  0  0
 26 31  2  0  0  0  0
 26 27  1  0  0  0  0
 27 28  2  0  0  0  0
 27 50  1  0  0  0  0
 28 29  1  0  0  0  0
 28 51  1  0  0  0  0
 29 34  1  0  0  0  0
 29 30  2  0  0  0  0
 30 31  1  0  0  0  0
 30 32  1  0  0  0  0
 31 52  1  0  0  0  0
 32 33  1  0  0  0  0
 32 53  1  0  0  0  0
 32 54  1  0  0  0  0
 33 34  1  0  0  0  0
 33 55  1  0  0  0  0
 33 56  1  0  0  0  0
M  END
$$$$
CHEMBL367206
  -OEChem-07121202283D

 57 63  0     1  0  0  0  0  0999 V2000
   -0.0165    1.3628    0.0095 C   0  0  0  0  0  0  0  0  0  0  0  0
    1.1698    2.0838    0.0021 C   0  0  0  0  0  0  0  0  0  0  0  0
    2.3862    1.4376   -0.0135 C   0  0  0  0  0  0  0  0  0  0  0  0
    2.4284    0.0458   -0.0214 C   0  0  0  0  0  0  0  0  0  0  0  0
    1.2231   -0.6777   -0.0133 C   0  0  0  0  0  0  0  0  0  0  0  0
    0.0021   -0.0041    0.0020 C   0  0  0  0  0  0  0  0  0  0  0  0
    1.2934   -2.1480   -0.0219 C   0  0  0  0  0  0  0  0  0  0  0  0
    2.5744   -2.7535   -0.0380 C   0  0  0  0  0  0  0  0  0  0  0  0
    3.6874   -1.9921   -0.0449 C   0  0  0  0  0  0  0  0  0  0  0  0
    3.6240   -0.6315   -0.0374 N   0  0  0  0  0  0  0  0  0  0  0  0
    4.9010   -2.8944   -0.0614 C   0  0  1  0  0  0  0  0  0  0  0  0
    4.4244   -4.2808   -0.0638 N   0  0  0  0  0  0  0  0  0  0  0  0
    2.9595   -4.2121   -0.0492 C   0  0  0  0  0  0  0  0  0  0  0  0
    5.2041   -5.4294   -0.0782 C   0  0  0  0  0  0  0  0  0  0  0  0
    6.5892   -5.3211    0.0191 C   0  0  0  0  0  0  0  0  0  0  0  0
    7.3574   -6.4677    0.0041 C   0  0  0  0  0  0  0  0  0  0  0  0
    6.7080   -7.7030   -0.1093 C   0  0  0  0  0  0  0  0  0  0  0  0
    5.3193   -7.7316   -0.2023 C   0  0  0  0  0  0  0  0  0  0  0  0
    4.6207   -6.6144   -0.1789 N   0  0  0  0  0  0  0  0  0  0  0  0
    7.4887   -8.9633   -0.1305 C   0  0  0  0  0  0  0  0  0  0  0  0
    6.8271  -10.1844   -0.2497 C   0  0  0  0  0  0  0  0  0  0  0  0
    7.5692  -11.3520   -0.2684 C   0  0  0  0  0  0  0  0  0  0  0  0
    8.9507  -11.2609   -0.1673 C   0  0  0  0  0  0  0  0  0  0  0  0
    9.5415  -10.0167   -0.0517 C   0  0  0  0  0  0  0  0  0  0  0  0
    8.8118   -8.9194   -0.0414 N   0  0  0  0  0  0  0  0  0  0  0  0
    5.7160   -2.6321   -1.3016 C   0  0  0  0  0  0  0  0  0  0  0  0
    5.3175   -3.1566   -2.5175 C   0  0  0  0  0  0  0  0  0  0  0  0
    6.0575   -2.9160   -3.6564 C   0  0  0  0  0  0  0  0  0  0  0  0
    7.2137   -2.1421   -3.5913 C   0  0  0  0  0  0  0  0  0  0  0  0
    7.6077   -1.6269   -2.3632 C   0  0  0  0  0  0  0  0  0  0  0  0
    6.8623   -1.8609   -1.2287 C   0  0  0  0  0  0  0  0  0  0  0  0
    8.8947   -0.8593   -2.5955 C   0  0  0  0  0  0  0  0  0  0  0  0
    9.3231   -1.3682   -3.9922 C   0  0  0  0  0  0  0  0  0  0  0  0
    8.0751   -1.7745   -4.5793 O   0  0  0  0  0  0  0  0  0  0  0  0
    0.2786   -2.8253   -0.0151 O   0  0  0  0  0  0  0  0  0  0  0  0
   -0.9613    1.8858    0.0259 H   0  0  0  0  0  0  0  0  0  0  0  0
    1.1386    3.1633    0.0082 H   0  0  0  0  0  0  0  0  0  0  0  0
    3.3032    2.0080   -0.0199 H   0  0  0  0  0  0  0  0  0  0  0  0
   -0.9242   -0.5595    0.0083 H   0  0  0  0  0  0  0  0  0  0  0  0
    5.5079   -2.7138    0.8259 H   0  0  0  0  0  0  0  0  0  0  0  0
    2.5749   -4.7034    0.8446 H   0  0  0  0  0  0  0  0  0  0  0  0
    2.5575   -4.6942   -0.9403 H   0  0  0  0  0  0  0  0  0  0  0  0
    7.0567   -4.3514    0.1049 H   0  0  0  0  0  0  0  0  0  0  0  0
    8.4336   -6.4133    0.0776 H   0  0  0  0  0  0  0  0  0  0  0  0
    4.8089   -8.6793   -0.2904 H   0  0  0  0  0  0  0  0  0  0  0  0
    5.7503  -10.2187   -0.3259 H   0  0  0  0  0  0  0  0  0  0  0  0
    7.0845  -12.3128   -0.3594 H   0  0  0  0  0  0  0  0  0  0  0  0
    9.5581  -12.1538   -0.1786 H   0  0  0  0  0  0  0  0  0  0  0  0
   10.6161   -9.9426    0.0271 H   0  0  0  0  0  0  0  0  0  0  0  0
    4.4224   -3.7581   -2.5755 H   0  0  0  0  0  0  0  0  0  0  0  0
    5.7390   -3.3290   -4.6021 H   0  0  0  0  0  0  0  0  0  0  0  0
    7.1746   -1.4455   -0.2820 H   0  0  0  0  0  0  0  0  0  0  0  0
    8.7100    0.2148   -2.6121 H   0  0  0  0  0  0  0  0  0  0  0  0
    9.6409   -1.1132   -1.8427 H   0  0  0  0  0  0  0  0  0  0  0  0
    9.7796   -0.5661   -4.5722 H   0  0  0  0  0  0  0  0  0  0  0  0
   10.0020   -2.2162   -3.9028 H   0  0  0  0  0  0  0  0  0  0  0  0
    4.4504   -0.1236   -0.0431 H   0  0  0  0  0  0  0  0  0  0  0  0
  1  6  2  0  0  0  0
  1  2  1  0  0  0  0
  1 36  1  0  0  0  0
  2  3  2  0  0  0  0
  2 37  1  0  0  0  0
  3  4  1  0  0  0  0
  3 38  1  0  0  0  0
  4 10  1  0  0  0  0
  4  5  2  0  0  0  0
  5  6  1  0  0  0  0
  5  7  1  0  0  0  0
  6 39  1  0  0  0  0
  7  8  1  0  0  0  0
  7 35  2  0  0  0  0
  8 13  1  0  0  0  0
  8  9  2  0  0  0  0
  9 10  1  0  0  0  0
  9 11  1  0  0  0  0
 10 57  1  0  0  0  0
 11 12  1  0  0  0  0
 11 26  1  0  0  0  0
 11 40  1  0  0  0  0
 12 13  1  0  0  0  0
 12 14  1  0  0  0  0
 13 41  1  0  0  0  0
 13 42  1  0  0  0  0
 14 19  2  0  0  0  0
 14 15  1  0  0  0  0
 15 16  2  0  0  0  0
 15 43  1  0  0  0  0
 16 17  1  0  0  0  0
 16 44  1  0  0  0  0
 17 18  2  0  0  0  0
 17 20  1  0  0  0  0
 18 19  1  0  0  0  0
 18 45  1  0  0  0  0
 20 25  2  0  0  0  0
 20 21  1  0  0  0  0
 21 22  2  0  0  0  0
 21 46  1  0  0  0  0
 22 23  1  0  0  0  0
 22 47  1  0  0  0  0
 23 24  2  0  0  0  0
 23 48  1  0  0  0  0
 24 25  1  0  0  0  0
 24 49  1  0  0  0  0
 26 31  2  0  0  0  0
 26 27  1  0  0  0  0
 27 28  2  0  0  0  0
 27 50  1  0  0  0  0
 28 29  1  0  0  0  0
 28 51  1  0  0  0  0
 29 34  1  0  0  0  0
 29 30  2  0  0  0  0
 30 31  1  0  0  0  0
 30 32  1  0  0  0  0
 31 52  1  0  0  0  0
 32 33  1  0  0  0  0
 32 53  1  0  0  0  0
 32 54  1  0  0  0  0
 33 34  1  0  0  0  0
 33 55  1  0  0  0  0
 33 56  1  0  0  0  0
M  END
$$$$
CHEMBL248087
  -OEChem-07121202283D

 52 58  0     1  0  0  0  0  0999 V2000
    0.3653    0.9999    2.5960 C   0  0  0  0  0  0  0  0  0  0  0  0
    1.4754    1.7969    2.3687 C   0  0  0  0  0  0  0  0  0  0  0  0
    2.6164    1.3156    1.7505 C   0  0  0  0  0  0  0  0  0  0  0  0
    2.6057   -0.0217    1.3591 C   0  0  0  0  0  0  0  0  0  0  0  0
    1.4658   -0.8328    1.5933 C   0  0  0  0  0  0  0  0  0  0  0  0
    0.3262   -0.3204    2.2210 C   0  0  0  0  0  0  0  0  0  0  0  0
    1.7916   -2.1427    1.0669 C   0  0  0  0  0  0  0  0  0  0  0  0
    3.0437   -2.0671    0.5665 C   0  0  0  0  0  0  0  0  0  0  0  0
    3.5392   -0.8020    0.7401 N   0  0  0  0  0  0  0  0  0  0  0  0
    4.4207   -0.5053    0.4647 H   0  0  0  0  0  0  0  0  0  0  0  0
    3.7535   -3.2312   -0.0867 C   0  0  2  0  0  0  0  0  0  0  0  0
    3.8172   -3.0694   -1.1627 H   0  0  0  0  0  0  0  0  0  0  0  0
    2.9606   -4.4474    0.1922 N   0  0  0  0  0  0  0  0  0  0  0  0
    1.5097   -4.3696    0.0274 C   0  0  2  0  0  0  0  0  0  0  0  0
    1.2884   -3.9999   -0.9738 H   0  0  0  0  0  0  0  0  0  0  0  0
    0.9376   -3.3847    1.0568 C   0  0  0  0  0  0  0  0  0  0  0  0
    0.8514   -5.6994    0.2075 C   0  0  0  0  0  0  0  0  0  0  0  0
   -0.3419   -5.7748    0.0028 O   0  0  0  0  0  0  0  0  0  0  0  0
    1.4917   -6.8067    0.5777 N   0  0  0  0  0  0  0  0  0  0  0  0
    2.9183   -6.8625    0.8503 C   0  0  0  0  0  0  0  0  0  0  0  0
    3.5918   -5.5570    0.5813 C   0  0  0  0  0  0  0  0  0  0  0  0
    4.7906   -5.4946    0.7541 O   0  0  0  0  0  0  0  0  0  0  0  0
    0.7439   -7.9910    0.7135 C   0  0  0  0  0  0  0  0  0  0  0  0
    0.5746   -8.8456   -0.3645 C   0  0  0  0  0  0  0  0  0  0  0  0
   -0.1514   -9.9776   -0.1973 C   0  0  0  0  0  0  0  0  0  0  0  0
   -0.6253   -9.8661    1.5201 S   0  0  0  0  0  0  0  0  0  0  0  0
    0.1794   -8.3199    1.9057 C   0  0  0  0  0  0  0  0  0  0  0  0
    5.1374   -3.3768    0.4917 C   0  0  0  0  0  0  0  0  0  0  0  0
    6.2317   -3.4569   -0.3494 C   0  0  0  0  0  0  0  0  0  0  0  0
    7.5032   -3.5900    0.1764 C   0  0  0  0  0  0  0  0  0  0  0  0
    7.6837   -3.6439    1.5490 C   0  0  0  0  0  0  0  0  0  0  0  0
    6.5814   -3.5633    2.3963 C   0  0  0  0  0  0  0  0  0  0  0  0
    5.3106   -3.4242    1.8624 C   0  0  0  0  0  0  0  0  0  0  0  0
    7.0174   -3.6392    3.6876 O   0  0  0  0  0  0  0  0  0  0  0  0
    8.3511   -4.1765    3.6122 C   0  0  0  0  0  0  0  0  0  0  0  0
    8.8103   -3.7702    2.3094 O   0  0  0  0  0  0  0  0  0  0  0  0
   -0.4950    1.4295    3.0877 H   0  0  0  0  0  0  0  0  0  0  0  0
    1.4494    2.8294    2.6844 H   0  0  0  0  0  0  0  0  0  0  0  0
    3.4753    1.9475    1.5791 H   0  0  0  0  0  0  0  0  0  0  0  0
   -0.5437   -0.9342    2.4024 H   0  0  0  0  0  0  0  0  0  0  0  0
    0.9475   -3.8430    2.0457 H   0  0  0  0  0  0  0  0  0  0  0  0
   -0.0846   -3.1230    0.7833 H   0  0  0  0  0  0  0  0  0  0  0  0
    3.0689   -7.1410    1.8933 H   0  0  0  0  0  0  0  0  0  0  0  0
    3.3710   -7.6225    0.2135 H   0  0  0  0  0  0  0  0  0  0  0  0
    1.0143   -8.6128   -1.3231 H   0  0  0  0  0  0  0  0  0  0  0  0
   -0.3836  -10.7483   -0.9174 H   0  0  0  0  0  0  0  0  0  0  0  0
    0.2093   -7.7842    2.8430 H   0  0  0  0  0  0  0  0  0  0  0  0
    6.0928   -3.4157   -1.4197 H   0  0  0  0  0  0  0  0  0  0  0  0
    8.3562   -3.6523   -0.4831 H   0  0  0  0  0  0  0  0  0  0  0  0
    4.4544   -3.3569    2.5172 H   0  0  0  0  0  0  0  0  0  0  0  0
    8.9814   -3.7477    4.3913 H   0  0  0  0  0  0  0  0  0  0  0  0
    8.3310   -5.2636    3.6894 H   0  0  0  0  0  0  0  0  0  0  0  0
  1  6  2  0  0  0  0
  1  2  1  0  0  0  0
  1 37  1  0  0  0  0
  2  3  2  0  0  0  0
  2 38  1  0  0  0  0
  3  4  1  0  0  0  0
  3 39  1  0  0  0  0
  4  9  1  0  0  0  0
  4  5  2  0  0  0  0
  5  6  1  0  0  0  0
  5  7  1  0  0  0  0
  6 40  1  0  0  0  0
  7 16  1  0  0  0  0
  7  8  2  0  0  0  0
  8  9  1  0  0  0  0
  8 11  1  0  0  0  0
  9 10  1  0  0  0  0
 11 12  1  0  0  0  0
 11 13  1  0  0  0  0
 11 28  1  0  0  0  0
 13 21  1  0  0  0  0
 13 14  1  0  0  0  0
 14 15  1  0  0  0  0
 14 16  1  0  0  0  0
 14 17  1  0  0  0  0
 16 41  1  0  0  0  0
 16 42  1  0  0  0  0
 17 18  2  0  0  0  0
 17 19  1  0  0  0  0
 19 20  1  0  0  0  0
 19 23  1  0  0  0  0
 20 21  1  0  0  0  0
 20 43  1  0  0  0  0
 20 44  1  0  0  0  0
 21 22  2  0  0  0  0
 23 27  2  0  0  0  0
 23 24  1  0  0  0  0
 24 25  2  0  0  0  0
 24 45  1  0  0  0  0
 25 26  1  0  0  0  0
 25 46  1  0  0  0  0
 26 27  1  0  0  0  0
 27 47  1  0  0  0  0
 28 33  2  0  0  0  0
 28 29  1  0  0  0  0
 29 30  2  0  0  0  0
 29 48  1  0  0  0  0
 30 31  1  0  0  0  0
 30 49  1  0  0  0  0
 31 36  1  0  0  0  0
 31 32  2  0  0  0  0
 32 33  1  0  0  0  0
 32 34  1  0  0  0  0
 33 50  1  0  0  0  0
 34 35  1  0  0  0  0
 35 36  1  0  0  0  0
 35 51  1  0  0  0  0
 35 52  1  0  0  0  0
M  END
$$$$
CHEMBL367142
  -OEChem-07121202283D

 58 64  0     1  0  0  0  0  0999 V2000
    1.0944   -3.1263    1.3399 C   0  0  0  0  0  0  0  0  0  0  0  0
    0.4922   -2.0230    0.5873 N   0  0  0  0  0  0  0  0  0  0  0  0
    0.3673   -1.9411   -0.7559 C   0  0  0  0  0  0  0  0  0  0  0  0
   -0.2193   -0.8150   -1.0599 N   0  0  0  0  0  0  0  0  0  0  0  0
   -0.4921   -0.1356    0.0605 C   0  0  0  0  0  0  0  0  0  0  0  0
   -0.0583   -0.8775    1.1153 C   0  0  0  0  0  0  0  0  0  0  0  0
   -0.1562   -0.5214    2.5477 C   0  0  0  0  0  0  0  0  0  0  0  0
   -0.0413   -1.5092    3.5351 C   0  0  0  0  0  0  0  0  0  0  0  0
   -0.1389   -1.1287    4.8584 C   0  0  0  0  0  0  0  0  0  0  0  0
   -0.3467    0.2131    5.1668 C   0  0  0  0  0  0  0  0  0  0  0  0
   -0.4514    1.1225    4.2099 N   0  0  0  0  0  0  0  0  0  0  0  0
   -0.3583    0.8019    2.9347 C   0  0  0  0  0  0  0  0  0  0  0  0
   -0.4459    0.6033    6.4972 N   0  0  0  0  0  0  0  0  0  0  0  0
   -0.7693    1.9428    6.9993 C   0  0  0  0  0  0  0  0  0  0  0  0
   -0.7607    1.8762    8.5064 C   0  0  0  0  0  0  0  0  0  0  0  0
   -1.0085    2.8887    9.4662 C   0  0  0  0  0  0  0  0  0  0  0  0
   -0.9292    2.5263   10.8907 C   0  0  0  0  0  0  0  0  0  0  0  0
   -1.1598    3.4631   11.8977 C   0  0  0  0  0  0  0  0  0  0  0  0
   -1.0759    3.0824   13.2080 C   0  0  0  0  0  0  0  0  0  0  0  0
   -0.7633    1.7719   13.5426 C   0  0  0  0  0  0  0  0  0  0  0  0
   -0.5316    0.8315   12.5631 C   0  0  0  0  0  0  0  0  0  0  0  0
   -0.6123    1.1974   11.2221 C   0  0  0  0  0  0  0  0  0  0  0  0
   -0.3882    0.2850   10.2193 N   0  0  0  0  0  0  0  0  0  0  0  0
   -0.4621    0.6219    8.9016 C   0  0  0  0  0  0  0  0  0  0  0  0
   -0.2545   -0.2434    7.6786 C   0  0  2  0  0  0  0  0  0  0  0  0
    1.1443   -0.8042    7.6841 C   0  0  0  0  0  0  0  0  0  0  0  0
    2.2117   -0.0101    7.3069 C   0  0  0  0  0  0  0  0  0  0  0  0
    3.4944   -0.5171    7.3142 C   0  0  0  0  0  0  0  0  0  0  0  0
    3.7256   -1.8348    7.7018 C   0  0  0  0  0  0  0  0  0  0  0  0
    2.6447   -2.6247    8.0714 C   0  0  0  0  0  0  0  0  0  0  0  0
    1.3657   -2.1136    8.0721 C   0  0  0  0  0  0  0  0  0  0  0  0
    3.1933   -3.9963    8.4139 C   0  0  0  0  0  0  0  0  0  0  0  0
    4.6127   -3.9353    7.8016 C   0  0  0  0  0  0  0  0  0  0  0  0
    4.8951   -2.5256    7.7931 O   0  0  0  0  0  0  0  0  0  0  0  0
   -1.2792    4.0275    9.1221 O   0  0  0  0  0  0  0  0  0  0  0  0
    0.3130   -3.8123    1.6668 H   0  0  0  0  0  0  0  0  0  0  0  0
    1.8011   -3.6577    0.7025 H   0  0  0  0  0  0  0  0  0  0  0  0
    1.6172   -2.7297    2.2102 H   0  0  0  0  0  0  0  0  0  0  0  0
    0.6994   -2.6864   -1.4635 H   0  0  0  0  0  0  0  0  0  0  0  0
   -0.9745    0.8290    0.1175 H   0  0  0  0  0  0  0  0  0  0  0  0
    0.1194   -2.5430    3.2672 H   0  0  0  0  0  0  0  0  0  0  0  0
   -0.0554   -1.8635    5.6455 H   0  0  0  0  0  0  0  0  0  0  0  0
   -0.4442    1.5718    2.1823 H   0  0  0  0  0  0  0  0  0  0  0  0
   -0.0210    2.6573    6.6561 H   0  0  0  0  0  0  0  0  0  0  0  0
   -1.7569    2.2414    6.6476 H   0  0  0  0  0  0  0  0  0  0  0  0
   -1.4030    4.4842   11.6438 H   0  0  0  0  0  0  0  0  0  0  0  0
   -1.2539    3.8069   13.9889 H   0  0  0  0  0  0  0  0  0  0  0  0
   -0.7008    1.4866   14.5824 H   0  0  0  0  0  0  0  0  0  0  0  0
   -0.2892   -0.1854   12.8341 H   0  0  0  0  0  0  0  0  0  0  0  0
   -0.9799   -1.0569    7.6717 H   0  0  0  0  0  0  0  0  0  0  0  0
    2.0400    1.0125    7.0046 H   0  0  0  0  0  0  0  0  0  0  0  0
    4.3225    0.1100    7.0186 H   0  0  0  0  0  0  0  0  0  0  0  0
    0.5354   -2.7359    8.3719 H   0  0  0  0  0  0  0  0  0  0  0  0
    3.2406   -4.1384    9.4936 H   0  0  0  0  0  0  0  0  0  0  0  0
    2.6001   -4.7813    7.9448 H   0  0  0  0  0  0  0  0  0  0  0  0
    5.3271   -4.4685    8.4289 H   0  0  0  0  0  0  0  0  0  0  0  0
    4.6134   -4.3355    6.7877 H   0  0  0  0  0  0  0  0  0  0  0  0
   -0.1700   -0.6296   10.4578 H   0  0  0  0  0  0  0  0  0  0  0  0
  1  2  1  0  0  0  0
  1 36  1  0  0  0  0
  1 37  1  0  0  0  0
  1 38  1  0  0  0  0
  2  6  1  0  0  0  0
  2  3  1  0  0  0  0
  3  4  2  0  0  0  0
  3 39  1  0  0  0  0
  4  5  1  0  0  0  0
  5  6  2  0  0  0  0
  5 40  1  0  0  0  0
  6  7  1  0  0  0  0
  7 12  2  0  0  0  0
  7  8  1  0  0  0  0
  8  9  2  0  0  0  0
  8 41  1  0  0  0  0
  9 10  1  0  0  0  0
  9 42  1  0  0  0  0
 10 11  2  0  0  0  0
 10 13  1  0  0  0  0
 11 12  1  0  0  0  0
 12 43  1  0  0  0  0
 13 25  1  0  0  0  0
 13 14  1  0  0  0  0
 14 15  1  0  0  0  0
 14 44  1  0  0  0  0
 14 45  1  0  0  0  0
 15 24  2  0  0  0  0
 15 16  1  0  0  0  0
 16 17  1  0  0  0  0
 16 35  2  0  0  0  0
 17 22  2  0  0  0  0
 17 18  1  0  0  0  0
 18 19  2  0  0  0  0
 18 46  1  0  0  0  0
 19 20  1  0  0  0  0
 19 47  1  0  0  0  0
 20 21  2  0  0  0  0
 20 48  1  0  0  0  0
 21 22  1  0  0  0  0
 21 49  1  0  0  0  0
 22 23  1  0  0  0  0
 23 24  1  0  0  0  0
 23 58  1  0  0  0  0
 24 25  1  0  0  0  0
 25 26  1  0  0  0  0
 25 50  1  0  0  0  0
 26 31  2  0  0  0  0
 26 27  1  0  0  0  0
 27 28  2  0  0  0  0
 27 51  1  0  0  0  0
 28 29  1  0  0  0  0
 28 52  1  0  0  0  0
 29 34  1  0  0  0  0
 29 30  2  0  0  0  0
 30 31  1  0  0  0  0
 30 32  1  0  0  0  0
 31 53  1  0  0  0  0
 32 33  1  0  0  0  0
 32 54  1  0  0  0  0
 32 55  1  0  0  0  0
 33 34  1  0  0  0  0
 33 56  1  0  0  0  0
 33 57  1  0  0  0  0
M  END
$$$$
CHEMBL367142
  -OEChem-07121202283D

 59 65  0     1  0  0  0  0  0999 V2000
    1.0944   -3.1263    1.3399 C   0  0  0  0  0  0  0  0  0  0  0  0
    0.4922   -2.0230    0.5873 N   0  0  0  0  0  0  0  0  0  0  0  0
    0.3673   -1.9411   -0.7559 C   0  0  0  0  0  0  0  0  0  0  0  0
   -0.2193   -0.8150   -1.0599 N   0  3  0  0  0  0  0  0  0  0  0  0
   -0.4921   -0.1356    0.0605 C   0  0  0  0  0  0  0  0  0  0  0  0
   -0.0583   -0.8775    1.1153 C   0  0  0  0  0  0  0  0  0  0  0  0
   -0.1562   -0.5214    2.5477 C   0  0  0  0  0  0  0  0  0  0  0  0
   -0.0413   -1.5092    3.5351 C   0  0  0  0  0  0  0  0  0  0  0  0
   -0.1389   -1.1287    4.8584 C   0  0  0  0  0  0  0  0  0  0  0  0
   -0.3467    0.2131    5.1668 C   0  0  0  0  0  0  0  0  0  0  0  0
   -0.4514    1.1225    4.2099 N   0  0  0  0  0  0  0  0  0  0  0  0
   -0.3583    0.8019    2.9347 C   0  0  0  0  0  0  0  0  0  0  0  0
   -0.4459    0.6033    6.4972 N   0  0  0  0  0  0  0  0  0  0  0  0
   -0.7693    1.9428    6.9993 C   0  0  0  0  0  0  0  0  0  0  0  0
   -0.7607    1.8762    8.5064 C   0  0  0  0  0  0  0  0  0  0  0  0
   -1.0085    2.8887    9.4662 C   0  0  0  0  0  0  0  0  0  0  0  0
   -0.9292    2.5263   10.8907 C   0  0  0  0  0  0  0  0  0  0  0  0
   -1.1598    3.4631   11.8977 C   0  0  0  0  0  0  0  0  0  0  0  0
   -1.0759    3.0824   13.2080 C   0  0  0  0  0  0  0  0  0  0  0  0
   -0.7633    1.7719   13.5426 C   0  0  0  0  0  0  0  0  0  0  0  0
   -0.5316    0.8315   12.5631 C   0  0  0  0  0  0  0  0  0  0  0  0
   -0.6123    1.1974   11.2221 C   0  0  0  0  0  0  0  0  0  0  0  0
   -0.3882    0.2850   10.2193 N   0  0  0  0  0  0  0  0  0  0  0  0
   -0.4621    0.6219    8.9016 C   0  0  0  0  0  0  0  0  0  0  0  0
   -0.2545   -0.2434    7.6786 C   0  0  2  0  0  0  0  0  0  0  0  0
    1.1443   -0.8042    7.6841 C   0  0  0  0  0  0  0  0  0  0  0  0
    2.2117   -0.0101    7.3069 C   0  0  0  0  0  0  0  0  0  0  0  0
    3.4944   -0.5171    7.3142 C   0  0  0  0  0  0  0  0  0  0  0  0
    3.7256   -1.8348    7.7018 C   0  0  0  0  0  0  0  0  0  0  0  0
    2.6447   -2.6247    8.0714 C   0  0  0  0  0  0  0  0  0  0  0  0
    1.3657   -2.1136    8.0721 C   0  0  0  0  0  0  0  0  0  0  0  0
    3.1933   -3.9963    8.4139 C   0  0  0  0  0  0  0  0  0  0  0  0
    4.6127   -3.9353    7.8016 C   0  0  0  0  0  0  0  0  0  0  0  0
    4.8951   -2.5256    7.7931 O   0  0  0  0  0  0  0  0  0  0  0  0
   -1.2792    4.0275    9.1221 O   0  0  0  0  0  0  0  0  0  0  0  0
    0.3130   -3.8123    1.6668 H   0  0  0  0  0  0  0  0  0  0  0  0
    1.8011   -3.6577    0.7025 H   0  0  0  0  0  0  0  0  0  0  0  0
    1.6172   -2.7297    2.2102 H   0  0  0  0  0  0  0  0  0  0  0  0
    0.6994   -2.6864   -1.4635 H   0  0  0  0  0  0  0  0  0  0  0  0
   -0.9745    0.8290    0.1175 H   0  0  0  0  0  0  0  0  0  0  0  0
    0.1194   -2.5430    3.2672 H   0  0  0  0  0  0  0  0  0  0  0  0
   -0.0554   -1.8635    5.6455 H   0  0  0  0  0  0  0  0  0  0  0  0
   -0.4442    1.5718    2.1823 H   0  0  0  0  0  0  0  0  0  0  0  0
   -0.0210    2.6573    6.6561 H   0  0  0  0  0  0  0  0  0  0  0  0
   -1.7569    2.2414    6.6476 H   0  0  0  0  0  0  0  0  0  0  0  0
   -1.4030    4.4842   11.6438 H   0  0  0  0  0  0  0  0  0  0  0  0
   -1.2539    3.8069   13.9889 H   0  0  0  0  0  0  0  0  0  0  0  0
   -0.7008    1.4866   14.5824 H   0  0  0  0  0  0  0  0  0  0  0  0
   -0.2892   -0.1854   12.8341 H   0  0  0  0  0  0  0  0  0  0  0  0
   -0.9799   -1.0569    7.6717 H   0  0  0  0  0  0  0  0  0  0  0  0
    2.0400    1.0125    7.0046 H   0  0  0  0  0  0  0  0  0  0  0  0
    4.3225    0.1100    7.0186 H   0  0  0  0  0  0  0  0  0  0  0  0
    0.5354   -2.7359    8.3719 H   0  0  0  0  0  0  0  0  0  0  0  0
    3.2406   -4.1384    9.4936 H   0  0  0  0  0  0  0  0  0  0  0  0
    2.6001   -4.7813    7.9448 H   0  0  0  0  0  0  0  0  0  0  0  0
    5.3271   -4.4685    8.4289 H   0  0  0  0  0  0  0  0  0  0  0  0
    4.6134   -4.3355    6.7877 H   0  0  0  0  0  0  0  0  0  0  0  0
   -0.1700   -0.6296   10.4578 H   0  0  0  0  0  0  0  0  0  0  0  0
   -0.4257   -0.5166   -1.9595 H   0  0  0  0  0  0  0  0  0  0  0  0
  1  2  1  0  0  0  0
  1 36  1  0  0  0  0
  1 37  1  0  0  0  0
  1 38  1  0  0  0  0
  2  6  1  0  0  0  0
  2  3  1  0  0  0  0
  3  4  2  0  0  0  0
  3 39  1  0  0  0  0
  4  5  1  0  0  0  0
  4 59  1  0  0  0  0
  5  6  2  0  0  0  0
  5 40  1  0  0  0  0
  6  7  1  0  0  0  0
  7 12  2  0  0  0  0
  7  8  1  0  0  0  0
  8  9  2  0  0  0  0
  8 41  1  0  0  0  0
  9 10  1  0  0  0  0
  9 42  1  0  0  0  0
 10 11  2  0  0  0  0
 10 13  1  0  0  0  0
 11 12  1  0  0  0  0
 12 43  1  0  0  0  0
 13 25  1  0  0  0  0
 13 14  1  0  0  0  0
 14 15  1  0  0  0  0
 14 44  1  0  0  0  0
 14 45  1  0  0  0  0
 15 24  2  0  0  0  0
 15 16  1  0  0  0  0
 16 17  1  0  0  0  0
 16 35  2  0  0  0  0
 17 22  2  0  0  0  0
 17 18  1  0  0  0  0
 18 19  2  0  0  0  0
 18 46  1  0  0  0  0
 19 20  1  0  0  0  0
 19 47  1  0  0  0  0
 20 21  2  0  0  0  0
 20 48  1  0  0  0  0
 21 22  1  0  0  0  0
 21 49  1  0  0  0  0
 22 23  1  0  0  0  0
 23 24  1  0  0  0  0
 23 58  1  0  0  0  0
 24 25  1  0  0  0  0
 25 26  1  0  0  0  0
 25 50  1  0  0  0  0
 26 31  2  0  0  0  0
 26 27  1  0  0  0  0
 27 28  2  0  0  0  0
 27 51  1  0  0  0  0
 28 29  1  0  0  0  0
 28 52  1  0  0  0  0
 29 34  1  0  0  0  0
 29 30  2  0  0  0  0
 30 31  1  0  0  0  0
 30 32  1  0  0  0  0
 31 53  1  0  0  0  0
 32 33  1  0  0  0  0
 32 54  1  0  0  0  0
 32 55  1  0  0  0  0
 33 34  1  0  0  0  0
 33 56  1  0  0  0  0
 33 57  1  0  0  0  0
M  CHG  1   4   1
M  END
$$$$
CHEMBL367142
  -OEChem-07121202283D

 58 64  0     1  0  0  0  0  0999 V2000
    1.0944   -3.1263    1.3399 C   0  0  0  0  0  0  0  0  0  0  0  0
    0.4922   -2.0230    0.5873 N   0  0  0  0  0  0  0  0  0  0  0  0
    0.3673   -1.9411   -0.7559 C   0  0  0  0  0  0  0  0  0  0  0  0
   -0.2193   -0.8150   -1.0599 N   0  0  0  0  0  0  0  0  0  0  0  0
   -0.4921   -0.1356    0.0605 C   0  0  0  0  0  0  0  0  0  0  0  0
   -0.0583   -0.8775    1.1153 C   0  0  0  0  0  0  0  0  0  0  0  0
   -0.1562   -0.5214    2.5477 C   0  0  0  0  0  0  0  0  0  0  0  0
   -0.0413   -1.5092    3.5351 C   0  0  0  0  0  0  0  0  0  0  0  0
   -0.1389   -1.1287    4.8584 C   0  0  0  0  0  0  0  0  0  0  0  0
   -0.3467    0.2131    5.1668 C   0  0  0  0  0  0  0  0  0  0  0  0
   -0.4514    1.1225    4.2099 N   0  0  0  0  0  0  0  0  0  0  0  0
   -0.3583    0.8019    2.9347 C   0  0  0  0  0  0  0  0  0  0  0  0
   -0.4459    0.6033    6.4972 N   0  0  0  0  0  0  0  0  0  0  0  0
   -0.7693    1.9428    6.9993 C   0  0  0  0  0  0  0  0  0  0  0  0
   -0.7607    1.8762    8.5064 C   0  0  0  0  0  0  0  0  0  0  0  0
   -1.0085    2.8887    9.4662 C   0  0  0  0  0  0  0  0  0  0  0  0
   -0.9292    2.5263   10.8907 C   0  0  0  0  0  0  0  0  0  0  0  0
   -1.1598    3.4631   11.8977 C   0  0  0  0  0  0  0  0  0  0  0  0
   -1.0759    3.0824   13.2080 C   0  0  0  0  0  0  0  0  0  0  0  0
   -0.7633    1.7719   13.5426 C   0  0  0  0  0  0  0  0  0  0  0  0
   -0.5316    0.8315   12.5631 C   0  0  0  0  0  0  0  0  0  0  0  0
   -0.6123    1.1974   11.2221 C   0  0  0  0  0  0  0  0  0  0  0  0
   -0.3882    0.2850   10.2193 N   0  0  0  0  0  0  0  0  0  0  0  0
   -0.4621    0.6219    8.9016 C   0  0  0  0  0  0  0  0  0  0  0  0
   -0.2545   -0.2434    7.6786 C   0  0  1  0  0  0  0  0  0  0  0  0
   -1.2574   -1.3682    7.6690 C   0  0  0  0  0  0  0  0  0  0  0  0
   -2.5592   -1.1336    7.2659 C   0  0  0  0  0  0  0  0  0  0  0  0
   -3.4800   -2.1604    7.2513 C   0  0  0  0  0  0  0  0  0  0  0  0
   -3.1060   -3.4437    7.6430 C   0  0  0  0  0  0  0  0  0  0  0  0
   -1.7977   -3.6652    8.0528 C   0  0  0  0  0  0  0  0  0  0  0  0
   -0.8774   -2.6403    8.0580 C   0  0  0  0  0  0  0  0  0  0  0  0
   -1.6941   -5.1285    8.4372 C   0  0  0  0  0  0  0  0  0  0  0  0
   -3.1823   -5.5343    8.5554 C   0  0  0  0  0  0  0  0  0  0  0  0
   -3.8391   -4.5897    7.6931 O   0  0  0  0  0  0  0  0  0  0  0  0
   -1.2792    4.0275    9.1221 O   0  0  0  0  0  0  0  0  0  0  0  0
    0.3130   -3.8123    1.6668 H   0  0  0  0  0  0  0  0  0  0  0  0
    1.8011   -3.6577    0.7025 H   0  0  0  0  0  0  0  0  0  0  0  0
    1.6172   -2.7297    2.2102 H   0  0  0  0  0  0  0  0  0  0  0  0
    0.6994   -2.6864   -1.4635 H   0  0  0  0  0  0  0  0  0  0  0  0
   -0.9745    0.8290    0.1175 H   0  0  0  0  0  0  0  0  0  0  0  0
    0.1194   -2.5430    3.2672 H   0  0  0  0  0  0  0  0  0  0  0  0
   -0.0554   -1.8635    5.6455 H   0  0  0  0  0  0  0  0  0  0  0  0
   -0.4442    1.5718    2.1823 H   0  0  0  0  0  0  0  0  0  0  0  0
   -0.0210    2.6573    6.6561 H   0  0  0  0  0  0  0  0  0  0  0  0
   -1.7569    2.2414    6.6476 H   0  0  0  0  0  0  0  0  0  0  0  0
   -1.4030    4.4842   11.6438 H   0  0  0  0  0  0  0  0  0  0  0  0
   -1.2539    3.8069   13.9889 H   0  0  0  0  0  0  0  0  0  0  0  0
   -0.7008    1.4866   14.5824 H   0  0  0  0  0  0  0  0  0  0  0  0
   -0.2892   -0.1854   12.8341 H   0  0  0  0  0  0  0  0  0  0  0  0
    0.7572   -0.6490    7.6826 H   0  0  0  0  0  0  0  0  0  0  0  0
   -2.8566   -0.1410    6.9613 H   0  0  0  0  0  0  0  0  0  0  0  0
   -4.4946   -1.9688    6.9345 H   0  0  0  0  0  0  0  0  0  0  0  0
    0.1394   -2.8289    8.3692 H   0  0  0  0  0  0  0  0  0  0  0  0
   -1.1949   -5.7020    7.6562 H   0  0  0  0  0  0  0  0  0  0  0  0
   -1.1816   -5.2451    9.3921 H   0  0  0  0  0  0  0  0  0  0  0  0
   -3.3343   -6.5531    8.1989 H   0  0  0  0  0  0  0  0  0  0  0  0
   -3.5314   -5.4273    9.5824 H   0  0  0  0  0  0  0  0  0  0  0  0
   -0.1700   -0.6296   10.4578 H   0  0  0  0  0  0  0  0  0  0  0  0
  1  2  1  0  0  0  0
  1 36  1  0  0  0  0
  1 37  1  0  0  0  0
  1 38  1  0  0  0  0
  2  6  1  0  0  0  0
  2  3  1  0  0  0  0
  3  4  2  0  0  0  0
  3 39  1  0  0  0  0
  4  5  1  0  0  0  0
  5  6  2  0  0  0  0
  5 40  1  0  0  0  0
  6  7  1  0  0  0  0
  7 12  2  0  0  0  0
  7  8  1  0  0  0  0
  8  9  2  0  0  0  0
  8 41  1  0  0  0  0
  9 10  1  0  0  0  0
  9 42  1  0  0  0  0
 10 11  2  0  0  0  0
 10 13  1  0  0  0  0
 11 12  1  0  0  0  0
 12 43  1  0  0  0  0
 13 25  1  0  0  0  0
 13 14  1  0  0  0  0
 14 15  1  0  0  0  0
 14 44  1  0  0  0  0
 14 45  1  0  0  0  0
 15 24  2  0  0  0  0
 15 16  1  0  0  0  0
 16 17  1  0  0  0  0
 16 35  2  0  0  0  0
 17 22  2  0  0  0  0
 17 18  1  0  0  0  0
 18 19  2  0  0  0  0
 18 46  1  0  0  0  0
 19 20  1  0  0  0  0
 19 47  1  0  0  0  0
 20 21  2  0  0  0  0
 20 48  1  0  0  0  0
 21 22  1  0  0  0  0
 21 49  1  0  0  0  0
 22 23  1  0  0  0  0
 23 24  1  0  0  0  0
 23 58  1  0  0  0  0
 24 25  1  0  0  0  0
 25 26  1  0  0  0  0
 25 50  1  0  0  0  0
 26 31  2  0  0  0  0
 26 27  1  0  0  0  0
 27 28  2  0  0  0  0
 27 51  1  0  0  0  0
 28 29  1  0  0  0  0
 28 52  1  0  0  0  0
 29 34  1  0  0  0  0
 29 30  2  0  0  0  0
 30 31  1  0  0  0  0
 30 32  1  0  0  0  0
 31 53  1  0  0  0  0
 32 33  1  0  0  0  0
 32 54  1  0  0  0  0
 32 55  1  0  0  0  0
 33 34  1  0  0  0  0
 33 56  1  0  0  0  0
 33 57  1  0  0  0  0
M  END
$$$$
CHEMBL367142
  -OEChem-07121202283D

 59 65  0     1  0  0  0  0  0999 V2000
    1.0944   -3.1263    1.3399 C   0  0  0  0  0  0  0  0  0  0  0  0
    0.4922   -2.0230    0.5873 N   0  0  0  0  0  0  0  0  0  0  0  0
    0.3673   -1.9411   -0.7559 C   0  0  0  0  0  0  0  0  0  0  0  0
   -0.2193   -0.8150   -1.0599 N   0  3  0  0  0  0  0  0  0  0  0  0
   -0.4921   -0.1356    0.0605 C   0  0  0  0  0  0  0  0  0  0  0  0
   -0.0583   -0.8775    1.1153 C   0  0  0  0  0  0  0  0  0  0  0  0
   -0.1562   -0.5214    2.5477 C   0  0  0  0  0  0  0  0  0  0  0  0
   -0.0413   -1.5092    3.5351 C   0  0  0  0  0  0  0  0  0  0  0  0
   -0.1389   -1.1287    4.8584 C   0  0  0  0  0  0  0  0  0  0  0  0
   -0.3467    0.2131    5.1668 C   0  0  0  0  0  0  0  0  0  0  0  0
   -0.4514    1.1225    4.2099 N   0  0  0  0  0  0  0  0  0  0  0  0
   -0.3583    0.8019    2.9347 C   0  0  0  0  0  0  0  0  0  0  0  0
   -0.4459    0.6033    6.4972 N   0  0  0  0  0  0  0  0  0  0  0  0
   -0.7693    1.9428    6.9993 C   0  0  0  0  0  0  0  0  0  0  0  0
   -0.7607    1.8762    8.5064 C   0  0  0  0  0  0  0  0  0  0  0  0
   -1.0085    2.8887    9.4662 C   0  0  0  0  0  0  0  0  0  0  0  0
   -0.9292    2.5263   10.8907 C   0  0  0  0  0  0  0  0  0  0  0  0
   -1.1598    3.4631   11.8977 C   0  0  0  0  0  0  0  0  0  0  0  0
   -1.0759    3.0824   13.2080 C   0  0  0  0  0  0  0  0  0  0  0  0
   -0.7633    1.7719   13.5426 C   0  0  0  0  0  0  0  0  0  0  0  0
   -0.5316    0.8315   12.5631 C   0  0  0  0  0  0  0  0  0  0  0  0
   -0.6123    1.1974   11.2221 C   0  0  0  0  0  0  0  0  0  0  0  0
   -0.3882    0.2850   10.2193 N   0  0  0  0  0  0  0  0  0  0  0  0
   -0.4621    0.6219    8.9016 C   0  0  0  0  0  0  0  0  0  0  0  0
   -0.2545   -0.2434    7.6786 C   0  0  1  0  0  0  0  0  0  0  0  0
   -1.2574   -1.3682    7.6690 C   0  0  0  0  0  0  0  0  0  0  0  0
   -2.5592   -1.1336    7.2659 C   0  0  0  0  0  0  0  0  0  0  0  0
   -3.4800   -2.1604    7.2513 C   0  0  0  0  0  0  0  0  0  0  0  0
   -3.1060   -3.4437    7.6430 C   0  0  0  0  0  0  0  0  0  0  0  0
   -1.7977   -3.6652    8.0528 C   0  0  0  0  0  0  0  0  0  0  0  0
   -0.8774   -2.6403    8.0580 C   0  0  0  0  0  0  0  0  0  0  0  0
   -1.6941   -5.1285    8.4372 C   0  0  0  0  0  0  0  0  0  0  0  0
   -3.1823   -5.5343    8.5554 C   0  0  0  0  0  0  0  0  0  0  0  0
   -3.8391   -4.5897    7.6931 O   0  0  0  0  0  0  0  0  0  0  0  0
   -1.2792    4.0275    9.1221 O   0  0  0  0  0  0  0  0  0  0  0  0
    0.3130   -3.8123    1.6668 H   0  0  0  0  0  0  0  0  0  0  0  0
    1.8011   -3.6577    0.7025 H   0  0  0  0  0  0  0  0  0  0  0  0
    1.6172   -2.7297    2.2102 H   0  0  0  0  0  0  0  0  0  0  0  0
    0.6994   -2.6864   -1.4635 H   0  0  0  0  0  0  0  0  0  0  0  0
   -0.9745    0.8290    0.1175 H   0  0  0  0  0  0  0  0  0  0  0  0
    0.1194   -2.5430    3.2672 H   0  0  0  0  0  0  0  0  0  0  0  0
   -0.0554   -1.8635    5.6455 H   0  0  0  0  0  0  0  0  0  0  0  0
   -0.4442    1.5718    2.1823 H   0  0  0  0  0  0  0  0  0  0  0  0
   -0.0210    2.6573    6.6561 H   0  0  0  0  0  0  0  0  0  0  0  0
   -1.7569    2.2414    6.6476 H   0  0  0  0  0  0  0  0  0  0  0  0
   -1.4030    4.4842   11.6438 H   0  0  0  0  0  0  0  0  0  0  0  0
   -1.2539    3.8069   13.9889 H   0  0  0  0  0  0  0  0  0  0  0  0
   -0.7008    1.4866   14.5824 H   0  0  0  0  0  0  0  0  0  0  0  0
   -0.2892   -0.1854   12.8341 H   0  0  0  0  0  0  0  0  0  0  0  0
    0.7572   -0.6490    7.6826 H   0  0  0  0  0  0  0  0  0  0  0  0
   -2.8566   -0.1410    6.9613 H   0  0  0  0  0  0  0  0  0  0  0  0
   -4.4946   -1.9688    6.9345 H   0  0  0  0  0  0  0  0  0  0  0  0
    0.1394   -2.8289    8.3692 H   0  0  0  0  0  0  0  0  0  0  0  0
   -1.1949   -5.7020    7.6562 H   0  0  0  0  0  0  0  0  0  0  0  0
   -1.1816   -5.2451    9.3921 H   0  0  0  0  0  0  0  0  0  0  0  0
   -3.3343   -6.5531    8.1989 H   0  0  0  0  0  0  0  0  0  0  0  0
   -3.5314   -5.4273    9.5824 H   0  0  0  0  0  0  0  0  0  0  0  0
   -0.1700   -0.6296   10.4578 H   0  0  0  0  0  0  0  0  0  0  0  0
   -0.4257   -0.5166   -1.9595 H   0  0  0  0  0  0  0  0  0  0  0  0
  1  2  1  0  0  0  0
  1 36  1  0  0  0  0
  1 37  1  0  0  0  0
  1 38  1  0  0  0  0
  2  6  1  0  0  0  0
  2  3  1  0  0  0  0
  3  4  2  0  0  0  0
  3 39  1  0  0  0  0
  4  5  1  0  0  0  0
  4 59  1  0  0  0  0
  5  6  2  0  0  0  0
  5 40  1  0  0  0  0
  6  7  1  0  0  0  0
  7 12  2  0  0  0  0
  7  8  1  0  0  0  0
  8  9  2  0  0  0  0
  8 41  1  0  0  0  0
  9 10  1  0  0  0  0
  9 42  1  0  0  0  0
 10 11  2  0  0  0  0
 10 13  1  0  0  0  0
 11 12  1  0  0  0  0
 12 43  1  0  0  0  0
 13 25  1  0  0  0  0
 13 14  1  0  0  0  0
 14 15  1  0  0  0  0
 14 44  1  0  0  0  0
 14 45  1  0  0  0  0
 15 24  2  0  0  0  0
 15 16  1  0  0  0  0
 16 17  1  0  0  0  0
 16 35  2  0  0  0  0
 17 22  2  0  0  0  0
 17 18  1  0  0  0  0
 18 19  2  0  0  0  0
 18 46  1  0  0  0  0
 19 20  1  0  0  0  0
 19 47  1  0  0  0  0
 20 21  2  0  0  0  0
 20 48  1  0  0  0  0
 21 22  1  0  0  0  0
 21 49  1  0  0  0  0
 22 23  1  0  0  0  0
 23 24  1  0  0  0  0
 23 58  1  0  0  0  0
 24 25  1  0  0  0  0
 25 26  1  0  0  0  0
 25 50  1  0  0  0  0
 26 31  2  0  0  0  0
 26 27  1  0  0  0  0
 27 28  2  0  0  0  0
 27 51  1  0  0  0  0
 28 29  1  0  0  0  0
 28 52  1  0  0  0  0
 29 34  1  0  0  0  0
 29 30  2  0  0  0  0
 30 31  1  0  0  0  0
 30 32  1  0  0  0  0
 31 53  1  0  0  0  0
 32 33  1  0  0  0  0
 32 54  1  0  0  0  0
 32 55  1  0  0  0  0
 33 34  1  0  0  0  0
 33 56  1  0  0  0  0
 33 57  1  0  0  0  0
M  CHG  1   4   1
M  END
$$$$
CHEMBL177348
  -OEChem-07121202283D

 54 60  0     1  0  0  0  0  0999 V2000
   -0.0165    1.3628    0.0095 C   0  0  0  0  0  0  0  0  0  0  0  0
    1.1698    2.0838    0.0021 C   0  0  0  0  0  0  0  0  0  0  0  0
    2.3862    1.4376   -0.0135 C   0  0  0  0  0  0  0  0  0  0  0  0
    2.4284    0.0458   -0.0214 C   0  0  0  0  0  0  0  0  0  0  0  0
    1.2231   -0.6777   -0.0133 C   0  0  0  0  0  0  0  0  0  0  0  0
    0.0021   -0.0041    0.0020 C   0  0  0  0  0  0  0  0  0  0  0  0
    1.2934   -2.1480   -0.0219 C   0  0  0  0  0  0  0  0  0  0  0  0
    2.5744   -2.7535   -0.0380 C   0  0  0  0  0  0  0  0  0  0  0  0
    3.6874   -1.9921   -0.0449 C   0  0  0  0  0  0  0  0  0  0  0  0
    3.6240   -0.6315   -0.0374 N   0  0  0  0  0  0  0  0  0  0  0  0
    4.9010   -2.8944   -0.0614 C   0  0  2  0  0  0  0  0  0  0  0  0
    4.4244   -4.2808   -0.0638 N   0  0  3  0  0  0  0  0  0  0  0  0
    2.9595   -4.2121   -0.0492 C   0  0  0  0  0  0  0  0  0  0  0  0
    5.2096   -5.4375   -0.0783 C   0  0  0  0  0  0  0  0  0  0  0  0
    6.5950   -5.3367   -0.0866 C   0  0  0  0  0  0  0  0  0  0  0  0
    7.3699   -6.4791   -0.1010 C   0  0  0  0  0  0  0  0  0  0  0  0
    6.7648   -7.7285   -0.1076 C   0  0  0  0  0  0  0  0  0  0  0  0
    5.3803   -7.8297   -0.0998 C   0  0  0  0  0  0  0  0  0  0  0  0
    4.6047   -6.6879   -0.0787 C   0  0  0  0  0  0  0  0  0  0  0  0
    7.5533   -8.8899   -0.1226 N   0  0  0  0  0  0  0  0  0  0  0  0
    7.0988  -10.1830   -0.1361 C   0  0  0  0  0  0  0  0  0  0  0  0
    8.1856  -10.9784   -0.1478 C   0  0  0  0  0  0  0  0  0  0  0  0
    9.2759  -10.1974   -0.1416 N   0  0  0  0  0  0  0  0  0  0  0  0
    8.9101   -8.9443   -0.1325 C   0  0  0  0  0  0  0  0  0  0  0  0
    5.7400   -2.6447    1.1653 C   0  0  0  0  0  0  0  0  0  0  0  0
    5.3680   -3.1930    2.3787 C   0  0  0  0  0  0  0  0  0  0  0  0
    6.1347   -2.9672    3.5067 C   0  0  0  0  0  0  0  0  0  0  0  0
    7.2784   -2.1898    3.4234 C   0  0  0  0  0  0  0  0  0  0  0  0
    7.6531   -1.6375    2.2011 C   0  0  0  0  0  0  0  0  0  0  0  0
    6.8831   -1.8727    1.0736 C   0  0  0  0  0  0  0  0  0  0  0  0
    8.8018   -0.9219    2.3796 O   0  0  0  0  0  0  0  0  0  0  0  0
    8.9024   -0.7041    3.7993 C   0  0  0  0  0  0  0  0  0  0  0  0
    8.1923   -1.8203    4.3677 O   0  0  0  0  0  0  0  0  0  0  0  0
    0.2786   -2.8253   -0.0151 O   0  0  0  0  0  0  0  0  0  0  0  0
   -0.9613    1.8858    0.0259 H   0  0  0  0  0  0  0  0  0  0  0  0
    1.1386    3.1633    0.0082 H   0  0  0  0  0  0  0  0  0  0  0  0
    3.3032    2.0080   -0.0199 H   0  0  0  0  0  0  0  0  0  0  0  0
   -0.9242   -0.5595    0.0083 H   0  0  0  0  0  0  0  0  0  0  0  0
    5.4905   -2.7047   -0.9584 H   0  0  0  0  0  0  0  0  0  0  0  0
    2.5749   -4.7034    0.8446 H   0  0  0  0  0  0  0  0  0  0  0  0
    2.5575   -4.6942   -0.9403 H   0  0  0  0  0  0  0  0  0  0  0  0
    7.0658   -4.3648   -0.0822 H   0  0  0  0  0  0  0  0  0  0  0  0
    8.4470   -6.4008   -0.1074 H   0  0  0  0  0  0  0  0  0  0  0  0
    4.9100   -8.8019   -0.1056 H   0  0  0  0  0  0  0  0  0  0  0  0
    3.5276   -6.7668   -0.0674 H   0  0  0  0  0  0  0  0  0  0  0  0
    6.0672  -10.5026   -0.1372 H   0  0  0  0  0  0  0  0  0  0  0  0
    8.1801  -12.0583   -0.1599 H   0  0  0  0  0  0  0  0  0  0  0  0
    9.5751   -8.0934   -0.1301 H   0  0  0  0  0  0  0  0  0  0  0  0
    4.4763   -3.7987    2.4456 H   0  0  0  0  0  0  0  0  0  0  0  0
    5.8417   -3.3968    4.4533 H   0  0  0  0  0  0  0  0  0  0  0  0
    7.1737   -1.4494    0.1235 H   0  0  0  0  0  0  0  0  0  0  0  0
    9.9456   -0.7129    4.1151 H   0  0  0  0  0  0  0  0  0  0  0  0
    8.4249    0.2354    4.0775 H   0  0  0  0  0  0  0  0  0  0  0  0
    4.4504   -0.1236   -0.0431 H   0  0  0  0  0  0  0  0  0  0  0  0
  1  6  2  0  0  0  0
  1  2  1  0  0  0  0
  1 35  1  0  0  0  0
  2  3  2  0  0  0  0
  2 36  1  0  0  0  0
  3  4  1  0  0  0  0
  3 37  1  0  0  0  0
  4 10  1  0  0  0  0
  4  5  2  0  0  0  0
  5  6  1  0  0  0  0
  5  7  1  0  0  0  0
  6 38  1  0  0  0  0
  7  8  1  0  0  0  0
  7 34  2  0  0  0  0
  8 13  1  0  0  0  0
  8  9  2  0  0  0  0
  9 10  1  0  0  0  0
  9 11  1  0  0  0  0
 10 54  1  0  0  0  0
 11 12  1  0  0  0  0
 11 25  1  0  0  0  0
 11 39  1  0  0  0  0
 12 13  1  0  0  0  0
 12 14  1  0  0  0  0
 13 40  1  0  0  0  0
 13 41  1  0  0  0  0
 14 19  2  0  0  0  0
 14 15  1  0  0  0  0
 15 16  2  0  0  0  0
 15 42  1  0  0  0  0
 16 17  1  0  0  0  0
 16 43  1  0  0  0  0
 17 18  2  0  0  0  0
 17 20  1  0  0  0  0
 18 19  1  0  0  0  0
 18 44  1  0  0  0  0
 19 45  1  0  0  0  0
 20 24  1  0  0  0  0
 20 21  1  0  0  0  0
 21 22  2  0  0  0  0
 21 46  1  0  0  0  0
 22 23  1  0  0  0  0
 22 47  1  0  0  0  0
 23 24  2  0  0  0  0
 24 48  1  0  0  0  0
 25 30  2  0  0  0  0
 25 26  1  0  0  0  0
 26 27  2  0  0  0  0
 26 49  1  0  0  0  0
 27 28  1  0  0  0  0
 27 50  1  0  0  0  0
 28 33  1  0  0  0  0
 28 29  2  0  0  0  0
 29 30  1  0  0  0  0
 29 31  1  0  0  0  0
 30 51  1  0  0  0  0
 31 32  1  0  0  0  0
 32 33  1  0  0  0  0
 32 52  1  0  0  0  0
 32 53  1  0  0  0  0
M  END
$$$$
CHEMBL177348
  -OEChem-07121202283D

 54 60  0     1  0  0  0  0  0999 V2000
   -0.0165    1.3628    0.0095 C   0  0  0  0  0  0  0  0  0  0  0  0
    1.1698    2.0838    0.0021 C   0  0  0  0  0  0  0  0  0  0  0  0
    2.3862    1.4376   -0.0135 C   0  0  0  0  0  0  0  0  0  0  0  0
    2.4284    0.0458   -0.0214 C   0  0  0  0  0  0  0  0  0  0  0  0
    1.2231   -0.6777   -0.0133 C   0  0  0  0  0  0  0  0  0  0  0  0
    0.0021   -0.0041    0.0020 C   0  0  0  0  0  0  0  0  0  0  0  0
    1.2934   -2.1480   -0.0219 C   0  0  0  0  0  0  0  0  0  0  0  0
    2.5744   -2.7535   -0.0380 C   0  0  0  0  0  0  0  0  0  0  0  0
    3.6874   -1.9921   -0.0449 C   0  0  0  0  0  0  0  0  0  0  0  0
    3.6240   -0.6315   -0.0374 N   0  0  0  0  0  0  0  0  0  0  0  0
    4.9010   -2.8944   -0.0614 C   0  0  1  0  0  0  0  0  0  0  0  0
    4.4244   -4.2808   -0.0638 N   0  0  3  0  0  0  0  0  0  0  0  0
    2.9595   -4.2121   -0.0492 C   0  0  0  0  0  0  0  0  0  0  0  0
    5.2096   -5.4375   -0.0783 C   0  0  0  0  0  0  0  0  0  0  0  0
    6.5950   -5.3367   -0.0866 C   0  0  0  0  0  0  0  0  0  0  0  0
    7.3699   -6.4791   -0.1010 C   0  0  0  0  0  0  0  0  0  0  0  0
    6.7648   -7.7285   -0.1076 C   0  0  0  0  0  0  0  0  0  0  0  0
    5.3803   -7.8297   -0.0998 C   0  0  0  0  0  0  0  0  0  0  0  0
    4.6047   -6.6879   -0.0787 C   0  0  0  0  0  0  0  0  0  0  0  0
    7.5533   -8.8899   -0.1226 N   0  0  0  0  0  0  0  0  0  0  0  0
    7.0988  -10.1830   -0.1361 C   0  0  0  0  0  0  0  0  0  0  0  0
    8.1856  -10.9784   -0.1478 C   0  0  0  0  0  0  0  0  0  0  0  0
    9.2759  -10.1974   -0.1416 N   0  0  0  0  0  0  0  0  0  0  0  0
    8.9101   -8.9443   -0.1325 C   0  0  0  0  0  0  0  0  0  0  0  0
    5.7160   -2.6321   -1.3016 C   0  0  0  0  0  0  0  0  0  0  0  0
    5.3140   -3.1584   -2.5152 C   0  0  0  0  0  0  0  0  0  0  0  0
    6.0580   -2.9202   -3.6557 C   0  0  0  0  0  0  0  0  0  0  0  0
    7.2094   -2.1530   -3.5847 C   0  0  0  0  0  0  0  0  0  0  0  0
    7.6143   -1.6228   -2.3622 C   0  0  0  0  0  0  0  0  0  0  0  0
    6.8607   -1.8609   -1.2243 C   0  0  0  0  0  0  0  0  0  0  0  0
    8.7647   -0.9135   -2.5539 O   0  0  0  0  0  0  0  0  0  0  0  0
    9.2805   -1.3533   -3.8242 C   0  0  0  0  0  0  0  0  0  0  0  0
    8.1061   -1.7758   -4.5423 O   0  0  0  0  0  0  0  0  0  0  0  0
    0.2786   -2.8253   -0.0151 O   0  0  0  0  0  0  0  0  0  0  0  0
   -0.9613    1.8858    0.0259 H   0  0  0  0  0  0  0  0  0  0  0  0
    1.1386    3.1633    0.0082 H   0  0  0  0  0  0  0  0  0  0  0  0
    3.3032    2.0080   -0.0199 H   0  0  0  0  0  0  0  0  0  0  0  0
   -0.9242   -0.5595    0.0083 H   0  0  0  0  0  0  0  0  0  0  0  0
    5.5079   -2.7138    0.8259 H   0  0  0  0  0  0  0  0  0  0  0  0
    2.5749   -4.7034    0.8446 H   0  0  0  0  0  0  0  0  0  0  0  0
    2.5575   -4.6942   -0.9403 H   0  0  0  0  0  0  0  0  0  0  0  0
    7.0658   -4.3648   -0.0822 H   0  0  0  0  0  0  0  0  0  0  0  0
    8.4470   -6.4008   -0.1074 H   0  0  0  0  0  0  0  0  0  0  0  0
    4.9100   -8.8019   -0.1056 H   0  0  0  0  0  0  0  0  0  0  0  0
    3.5276   -6.7668   -0.0674 H   0  0  0  0  0  0  0  0  0  0  0  0
    6.0672  -10.5026   -0.1372 H   0  0  0  0  0  0  0  0  0  0  0  0
    8.1801  -12.0583   -0.1599 H   0  0  0  0  0  0  0  0  0  0  0  0
    9.5751   -8.0934   -0.1301 H   0  0  0  0  0  0  0  0  0  0  0  0
    4.4171   -3.7573   -2.5722 H   0  0  0  0  0  0  0  0  0  0  0  0
    5.7416   -3.3325   -4.6024 H   0  0  0  0  0  0  0  0  0  0  0  0
    7.1698   -1.4473   -0.2758 H   0  0  0  0  0  0  0  0  0  0  0  0
    9.7718   -0.5306   -4.3437 H   0  0  0  0  0  0  0  0  0  0  0  0
    9.9683   -2.1882   -3.6901 H   0  0  0  0  0  0  0  0  0  0  0  0
    4.4504   -0.1236   -0.0431 H   0  0  0  0  0  0  0  0  0  0  0  0
  1  6  2  0  0  0  0
  1  2  1  0  0  0  0
  1 35  1  0  0  0  0
  2  3  2  0  0  0  0
  2 36  1  0  0  0  0
  3  4  1  0  0  0  0
  3 37  1  0  0  0  0
  4 10  1  0  0  0  0
  4  5  2  0  0  0  0
  5  6  1  0  0  0  0
  5  7  1  0  0  0  0
  6 38  1  0  0  0  0
  7  8  1  0  0  0  0
  7 34  2  0  0  0  0
  8 13  1  0  0  0  0
  8  9  2  0  0  0  0
  9 10  1  0  0  0  0
  9 11  1  0  0  0  0
 10 54  1  0  0  0  0
 11 12  1  0  0  0  0
 11 25  1  0  0  0  0
 11 39  1  0  0  0  0
 12 13  1  0  0  0  0
 12 14  1  0  0  0  0
 13 40  1  0  0  0  0
 13 41  1  0  0  0  0
 14 19  2  0  0  0  0
 14 15  1  0  0  0  0
 15 16  2  0  0  0  0
 15 42  1  0  0  0  0
 16 17  1  0  0  0  0
 16 43  1  0  0  0  0
 17 18  2  0  0  0  0
 17 20  1  0  0  0  0
 18 19  1  0  0  0  0
 18 44  1  0  0  0  0
 19 45  1  0  0  0  0
 20 24  1  0  0  0  0
 20 21  1  0  0  0  0
 21 22  2  0  0  0  0
 21 46  1  0  0  0  0
 22 23  1  0  0  0  0
 22 47  1  0  0  0  0
 23 24  2  0  0  0  0
 24 48  1  0  0  0  0
 25 30  2  0  0  0  0
 25 26  1  0  0  0  0
 26 27  2  0  0  0  0
 26 49  1  0  0  0  0
 27 28  1  0  0  0  0
 27 50  1  0  0  0  0
 28 33  1  0  0  0  0
 28 29  2  0  0  0  0
 29 30  1  0  0  0  0
 29 31  1  0  0  0  0
 30 51  1  0  0  0  0
 31 32  1  0  0  0  0
 32 33  1  0  0  0  0
 32 52  1  0  0  0  0
 32 53  1  0  0  0  0
M  END
$$$$
CHEMBL303917
  -OEChem-07121202283D

 63 68  0     1  0  0  0  0  0999 V2000
   -0.0178    1.4608    0.0101 C   0  0  0  0  0  0  0  0  0  0  0  0
    0.0021   -0.0041    0.0020 N   0  0  0  0  0  0  0  0  0  0  0  0
    0.0054   -0.6573   -1.1733 C   0  0  0  0  0  0  0  0  0  0  0  0
   -0.0091   -0.0326   -2.2187 O   0  0  0  0  0  0  0  0  0  0  0  0
    0.0253   -2.0678   -1.1930 C   0  0  0  0  0  0  0  0  0  0  0  0
    0.0428   -2.7648    0.0060 C   0  0  0  0  0  0  0  0  0  0  0  0
    0.0601   -4.0673   -0.2928 N   0  0  0  0  0  0  0  0  0  0  0  0
    0.0542   -4.2242   -1.5919 C   0  0  0  0  0  0  0  0  0  0  0  0
    0.0329   -3.0197   -2.1947 N   0  0  0  0  0  0  0  0  0  0  0  0
    0.0195   -2.7671   -3.6376 C   0  0  0  0  0  0  0  0  0  0  0  0
    1.4355   -2.6597   -4.1420 C   0  0  0  0  0  0  0  0  0  0  0  0
    2.0711   -1.4323   -4.1615 C   0  0  0  0  0  0  0  0  0  0  0  0
    3.3700   -1.3338   -4.6241 C   0  0  0  0  0  0  0  0  0  0  0  0
    4.0334   -2.4628   -5.0669 C   0  0  0  0  0  0  0  0  0  0  0  0
    3.3982   -3.6904   -5.0466 C   0  0  0  0  0  0  0  0  0  0  0  0
    2.1007   -3.7896   -4.5799 C   0  0  0  0  0  0  0  0  0  0  0  0
    0.0695   -5.5513   -2.3056 C   0  0  0  0  0  0  0  0  0  0  0  0
   -1.3677   -6.0217   -2.5386 C   0  0  0  0  0  0  0  0  0  0  0  0
   -2.0717   -5.0563   -3.4942 C   0  0  0  0  0  0  0  0  0  0  0  0
   -3.5088   -5.5266   -3.7272 C   0  0  0  0  0  0  0  0  0  0  0  0
   -3.4937   -6.9291   -4.3386 C   0  0  0  0  0  0  0  0  0  0  0  0
   -2.7897   -7.8945   -3.3830 C   0  0  0  0  0  0  0  0  0  0  0  0
   -1.3525   -7.4241   -3.1500 C   0  0  0  0  0  0  0  0  0  0  0  0
    0.0390   -2.0621    1.2023 N   0  0  0  0  0  0  0  0  0  0  0  0
    0.0228   -0.6909    1.2067 C   0  0  0  0  0  0  0  0  0  0  0  0
    0.0232   -0.1825    2.4083 N   0  3  0  0  0  0  0  0  0  0  0  0
    0.0515   -1.2406    3.4216 C   0  0  1  0  0  0  0  0  0  0  0  0
   -0.8088   -1.1891    4.0888 H   0  0  0  0  0  0  0  0  0  0  0  0
    0.0538   -2.5462    2.5925 C   0  0  2  0  0  0  0  0  0  0  0  0
   -0.7960   -3.1915    2.8149 H   0  0  0  0  0  0  0  0  0  0  0  0
    1.4070   -3.2270    2.8788 C   0  0  0  0  0  0  0  0  0  0  0  0
    2.3282   -2.0707    3.3395 C   0  0  0  0  0  0  0  0  0  0  0  0
    1.3841   -1.1747    4.1950 C   0  0  0  0  0  0  0  0  0  0  0  0
    1.0048    1.8381    0.0023 H   0  0  0  0  0  0  0  0  0  0  0  0
   -0.5450    1.8219   -0.8730 H   0  0  0  0  0  0  0  0  0  0  0  0
   -0.5280    1.8123    0.9069 H   0  0  0  0  0  0  0  0  0  0  0  0
   -0.4859   -3.5884   -4.1456 H   0  0  0  0  0  0  0  0  0  0  0  0
   -0.5094   -1.8353   -3.8385 H   0  0  0  0  0  0  0  0  0  0  0  0
    1.5527   -0.5502   -3.8155 H   0  0  0  0  0  0  0  0  0  0  0  0
    3.8663   -0.3747   -4.6400 H   0  0  0  0  0  0  0  0  0  0  0  0
    5.0480   -2.3858   -5.4290 H   0  0  0  0  0  0  0  0  0  0  0  0
    3.9164   -4.5724   -5.3929 H   0  0  0  0  0  0  0  0  0  0  0  0
    1.6057   -4.7492   -4.5606 H   0  0  0  0  0  0  0  0  0  0  0  0
    0.5761   -5.4424   -3.2646 H   0  0  0  0  0  0  0  0  0  0  0  0
    0.5978   -6.2852   -1.6970 H   0  0  0  0  0  0  0  0  0  0  0  0
   -1.9008   -6.0455   -1.5882 H   0  0  0  0  0  0  0  0  0  0  0  0
   -2.0825   -4.0572   -3.0586 H   0  0  0  0  0  0  0  0  0  0  0  0
   -1.5386   -5.0325   -4.4447 H   0  0  0  0  0  0  0  0  0  0  0  0
   -4.0419   -5.5504   -2.7767 H   0  0  0  0  0  0  0  0  0  0  0  0
   -4.0104   -4.8388   -4.4080 H   0  0  0  0  0  0  0  0  0  0  0  0
   -4.5175   -7.2641   -4.5046 H   0  0  0  0  0  0  0  0  0  0  0  0
   -2.9606   -6.9053   -5.2891 H   0  0  0  0  0  0  0  0  0  0  0  0
   -3.3228   -7.9182   -2.4325 H   0  0  0  0  0  0  0  0  0  0  0  0
   -2.7789   -8.8936   -3.8186 H   0  0  0  0  0  0  0  0  0  0  0  0
   -0.8194   -7.4004   -4.1005 H   0  0  0  0  0  0  0  0  0  0  0  0
   -0.8510   -8.1119   -2.4692 H   0  0  0  0  0  0  0  0  0  0  0  0
    1.3006   -3.9681    3.6710 H   0  0  0  0  0  0  0  0  0  0  0  0
    1.7999   -3.6895    1.9734 H   0  0  0  0  0  0  0  0  0  0  0  0
    3.1475   -2.4495    3.9506 H   0  0  0  0  0  0  0  0  0  0  0  0
    2.7088   -1.5152    2.4825 H   0  0  0  0  0  0  0  0  0  0  0  0
    1.7428   -0.1468    4.2495 H   0  0  0  0  0  0  0  0  0  0  0  0
    1.2656   -1.5917    5.1951 H   0  0  0  0  0  0  0  0  0  0  0  0
    0.0072    0.7673    2.6043 H   0  0  0  0  0  0  0  0  0  0  0  0
  1  2  1  0  0  0  0
  1 34  1  0  0  0  0
  1 35  1  0  0  0  0
  1 36  1  0  0  0  0
  2 25  1  0  0  0  0
  2  3  1  0  0  0  0
  3  4  2  0  0  0  0
  3  5  1  0  0  0  0
  5  9  1  0  0  0  0
  5  6  2  0  0  0  0
  6  7  1  0  0  0  0
  6 24  1  0  0  0  0
  7  8  2  0  0  0  0
  8  9  1  0  0  0  0
  8 17  1  0  0  0  0
  9 10  1  0  0  0  0
 10 11  1  0  0  0  0
 10 37  1  0  0  0  0
 10 38  1  0  0  0  0
 11 16  2  0  0  0  0
 11 12  1  0  0  0  0
 12 13  2  0  0  0  0
 12 39  1  0  0  0  0
 13 14  1  0  0  0  0
 13 40  1  0  0  0  0
 14 15  2  0  0  0  0
 14 41  1  0  0  0  0
 15 16  1  0  0  0  0
 15 42  1  0  0  0  0
 16 43  1  0  0  0  0
 17 18  1  0  0  0  0
 17 44  1  0  0  0  0
 17 45  1  0  0  0  0
 18 23  1  0  0  0  0
 18 19  1  0  0  0  0
 18 46  1  0  0  0  0
 19 20  1  0  0  0  0
 19 47  1  0  0  0  0
 19 48  1  0  0  0  0
 20 21  1  0  0  0  0
 20 49  1  0  0  0  0
 20 50  1  0  0  0  0
 21 22  1  0  0  0  0
 21 51  1  0  0  0  0
 21 52  1  0  0  0  0
 22 23  1  0  0  0  0
 22 53  1  0  0  0  0
 22 54  1  0  0  0  0
 23 55  1  0  0  0  0
 23 56  1  0  0  0  0
 24 29  1  0  0  0  0
 24 25  1  0  0  0  0
 25 26  2  0  0  0  0
 26 27  1  0  0  0  0
 26 63  1  0  0  0  0
 27 28  1  0  0  0  0
 27 33  1  0  0  0  0
 27 29  1  0  0  0  0
 29 30  1  0  0  0  0
 29 31  1  0  0  0  0
 31 32  1  0  0  0  0
 31 57  1  0  0  0  0
 31 58  1  0  0  0  0
 32 33  1  0  0  0  0
 32 59  1  0  0  0  0
 32 60  1  0  0  0  0
 33 61  1  0  0  0  0
 33 62  1  0  0  0  0
M  CHG  1  26   1
M  END
$$$$
CHEMBL303917
  -OEChem-07121202283D

 64 69  0     1  0  0  0  0  0999 V2000
   -0.0178    1.4608    0.0101 C   0  0  0  0  0  0  0  0  0  0  0  0
    0.0021   -0.0041    0.0020 N   0  0  0  0  0  0  0  0  0  0  0  0
    0.0054   -0.6573   -1.1733 C   0  0  0  0  0  0  0  0  0  0  0  0
   -0.0083   -0.0326   -2.2187 O   0  0  0  0  0  0  0  0  0  0  0  0
    0.0253   -2.0678   -1.1930 C   0  0  0  0  0  0  0  0  0  0  0  0
    0.0428   -2.7648    0.0060 C   0  0  0  0  0  0  0  0  0  0  0  0
    0.0601   -4.0673   -0.2928 N   0  3  0  0  0  0  0  0  0  0  0  0
    0.0542   -4.2242   -1.5919 C   0  0  0  0  0  0  0  0  0  0  0  0
    0.0329   -3.0197   -2.1947 N   0  0  0  0  0  0  0  0  0  0  0  0
    0.0195   -2.7671   -3.6376 C   0  0  0  0  0  0  0  0  0  0  0  0
    1.4355   -2.6597   -4.1420 C   0  0  0  0  0  0  0  0  0  0  0  0
    2.0711   -1.4323   -4.1615 C   0  0  0  0  0  0  0  0  0  0  0  0
    3.3700   -1.3338   -4.6241 C   0  0  0  0  0  0  0  0  0  0  0  0
    4.0334   -2.4628   -5.0669 C   0  0  0  0  0  0  0  0  0  0  0  0
    3.3982   -3.6904   -5.0466 C   0  0  0  0  0  0  0  0  0  0  0  0
    2.1007   -3.7896   -4.5799 C   0  0  0  0  0  0  0  0  0  0  0  0
    0.0695   -5.5513   -2.3056 C   0  0  0  0  0  0  0  0  0  0  0  0
   -1.3607   -6.0811   -2.4279 C   0  0  0  0  0  0  0  0  0  0  0  0
   -2.1752   -5.1479   -3.3260 C   0  0  0  0  0  0  0  0  0  0  0  0
   -3.6053   -5.6777   -3.4482 C   0  0  0  0  0  0  0  0  0  0  0  0
   -3.5792   -7.0799   -4.0600 C   0  0  0  0  0  0  0  0  0  0  0  0
   -2.7647   -8.0131   -3.1620 C   0  0  0  0  0  0  0  0  0  0  0  0
   -1.3345   -7.4833   -3.0397 C   0  0  0  0  0  0  0  0  0  0  0  0
    0.0390   -2.0621    1.2023 N   0  0  0  0  0  0  0  0  0  0  0  0
    0.0228   -0.6909    1.2067 C   0  0  0  0  0  0  0  0  0  0  0  0
    0.0232   -0.1825    2.4083 N   0  3  0  0  0  0  0  0  0  0  0  0
    0.0515   -1.2406    3.4216 C   0  0  1  0  0  0  0  0  0  0  0  0
   -0.8088   -1.1891    4.0888 H   0  0  0  0  0  0  0  0  0  0  0  0
    0.0538   -2.5462    2.5925 C   0  0  2  0  0  0  0  0  0  0  0  0
   -0.7960   -3.1915    2.8149 H   0  0  0  0  0  0  0  0  0  0  0  0
    1.4070   -3.2270    2.8788 C   0  0  0  0  0  0  0  0  0  0  0  0
    2.3282   -2.0707    3.3395 C   0  0  0  0  0  0  0  0  0  0  0  0
    1.3841   -1.1747    4.1950 C   0  0  0  0  0  0  0  0  0  0  0  0
    1.0048    1.8381    0.0023 H   0  0  0  0  0  0  0  0  0  0  0  0
   -0.5450    1.8219   -0.8730 H   0  0  0  0  0  0  0  0  0  0  0  0
   -0.5280    1.8123    0.9069 H   0  0  0  0  0  0  0  0  0  0  0  0
   -0.4859   -3.5884   -4.1456 H   0  0  0  0  0  0  0  0  0  0  0  0
   -0.5094   -1.8353   -3.8385 H   0  0  0  0  0  0  0  0  0  0  0  0
    1.5527   -0.5502   -3.8155 H   0  0  0  0  0  0  0  0  0  0  0  0
    3.8663   -0.3747   -4.6400 H   0  0  0  0  0  0  0  0  0  0  0  0
    5.0480   -2.3858   -5.4290 H   0  0  0  0  0  0  0  0  0  0  0  0
    3.9164   -4.5724   -5.3929 H   0  0  0  0  0  0  0  0  0  0  0  0
    1.6057   -4.7492   -4.5606 H   0  0  0  0  0  0  0  0  0  0  0  0
    0.4960   -5.4239   -3.3006 H   0  0  0  0  0  0  0  0  0  0  0  0
    0.6728   -6.2612   -1.7398 H   0  0  0  0  0  0  0  0  0  0  0  0
   -1.8178   -6.1245   -1.4394 H   0  0  0  0  0  0  0  0  0  0  0  0
   -2.1938   -4.1490   -2.8901 H   0  0  0  0  0  0  0  0  0  0  0  0
   -1.7181   -5.1046   -4.3145 H   0  0  0  0  0  0  0  0  0  0  0  0
   -4.0625   -5.7211   -2.4597 H   0  0  0  0  0  0  0  0  0  0  0  0
   -4.1856   -5.0129   -4.0880 H   0  0  0  0  0  0  0  0  0  0  0  0
   -4.5981   -7.4573   -4.1471 H   0  0  0  0  0  0  0  0  0  0  0  0
   -3.1221   -7.0365   -5.0486 H   0  0  0  0  0  0  0  0  0  0  0  0
   -3.2218   -8.0564   -2.1734 H   0  0  0  0  0  0  0  0  0  0  0  0
   -2.7461   -9.0120   -3.5978 H   0  0  0  0  0  0  0  0  0  0  0  0
   -0.8774   -7.4399   -4.0282 H   0  0  0  0  0  0  0  0  0  0  0  0
   -0.7542   -8.1481   -2.3999 H   0  0  0  0  0  0  0  0  0  0  0  0
    1.3006   -3.9681    3.6710 H   0  0  0  0  0  0  0  0  0  0  0  0
    1.7999   -3.6895    1.9734 H   0  0  0  0  0  0  0  0  0  0  0  0
    3.1475   -2.4495    3.9506 H   0  0  0  0  0  0  0  0  0  0  0  0
    2.7088   -1.5152    2.4825 H   0  0  0  0  0  0  0  0  0  0  0  0
    1.7428   -0.1468    4.2495 H   0  0  0  0  0  0  0  0  0  0  0  0
    1.2656   -1.5917    5.1951 H   0  0  0  0  0  0  0  0  0  0  0  0
    0.0072    0.7673    2.6043 H   0  0  0  0  0  0  0  0  0  0  0  0
    0.0748   -4.7883    0.3560 H   0  0  0  0  0  0  0  0  0  0  0  0
  1  2  1  0  0  0  0
  1 34  1  0  0  0  0
  1 35  1  0  0  0  0
  1 36  1  0  0  0  0
  2 25  1  0  0  0  0
  2  3  1  0  0  0  0
  3  4  2  0  0  0  0
  3  5  1  0  0  0  0
  5  9  1  0  0  0  0
  5  6  2  0  0  0  0
  6  7  1  0  0  0  0
  6 24  1  0  0  0  0
  7  8  2  0  0  0  0
  7 64  1  0  0  0  0
  8  9  1  0  0  0  0
  8 17  1  0  0  0  0
  9 10  1  0  0  0  0
 10 11  1  0  0  0  0
 10 37  1  0  0  0  0
 10 38  1  0  0  0  0
 11 16  2  0  0  0  0
 11 12  1  0  0  0  0
 12 13  2  0  0  0  0
 12 39  1  0  0  0  0
 13 14  1  0  0  0  0
 13 40  1  0  0  0  0
 14 15  2  0  0  0  0
 14 41  1  0  0  0  0
 15 16  1  0  0  0  0
 15 42  1  0  0  0  0
 16 43  1  0  0  0  0
 17 18  1  0  0  0  0
 17 44  1  0  0  0  0
 17 45  1  0  0  0  0
 18 23  1  0  0  0  0
 18 19  1  0  0  0  0
 18 46  1  0  0  0  0
 19 20  1  0  0  0  0
 19 47  1  0  0  0  0
 19 48  1  0  0  0  0
 20 21  1  0  0  0  0
 20 49  1  0  0  0  0
 20 50  1  0  0  0  0
 21 22  1  0  0  0  0
 21 51  1  0  0  0  0
 21 52  1  0  0  0  0
 22 23  1  0  0  0  0
 22 53  1  0  0  0  0
 22 54  1  0  0  0  0
 23 55  1  0  0  0  0
 23 56  1  0  0  0  0
 24 29  1  0  0  0  0
 24 25  1  0  0  0  0
 25 26  2  0  0  0  0
 26 27  1  0  0  0  0
 26 63  1  0  0  0  0
 27 28  1  0  0  0  0
 27 33  1  0  0  0  0
 27 29  1  0  0  0  0
 29 30  1  0  0  0  0
 29 31  1  0  0  0  0
 31 32  1  0  0  0  0
 31 57  1  0  0  0  0
 31 58  1  0  0  0  0
 32 33  1  0  0  0  0
 32 59  1  0  0  0  0
 32 60  1  0  0  0  0
 33 61  1  0  0  0  0
 33 62  1  0  0  0  0
M  CHG  2   7   1  26   1
M  END
$$$$
CHEMBL247073
  -OEChem-07121202283D

 59 65  0     1  0  0  0  0  0999 V2000
   -2.8144    0.5259    1.6885 C   0  0  0  0  0  0  0  0  0  0  0  0
   -1.4586    0.3425    1.2760 O   0  0  0  0  0  0  0  0  0  0  0  0
   -0.6353   -0.3145    2.1358 C   0  0  0  0  0  0  0  0  0  0  0  0
   -1.1256   -0.7773    3.3481 C   0  0  0  0  0  0  0  0  0  0  0  0
   -0.2900   -1.4446    4.2217 C   0  0  0  0  0  0  0  0  0  0  0  0
    1.0413   -1.6524    3.8865 C   0  0  0  0  0  0  0  0  0  0  0  0
    1.5314   -1.1889    2.6729 C   0  0  0  0  0  0  0  0  0  0  0  0
    0.6933   -0.5267    1.7978 C   0  0  0  0  0  0  0  0  0  0  0  0
    1.8898   -2.3290    4.7727 N   0  0  0  0  0  0  0  0  0  0  0  0
    2.6154   -1.5456    5.7587 C   0  0  0  0  0  0  0  0  0  0  0  0
    3.4201   -2.4057    6.6780 C   0  0  0  0  0  0  0  0  0  0  0  0
    4.0497   -1.8582    7.5582 O   0  0  0  0  0  0  0  0  0  0  0  0
    3.4925   -3.7358    6.5961 N   0  0  0  0  0  0  0  0  0  0  0  0
    2.8489   -4.5068    5.5333 C   0  0  1  0  0  0  0  0  0  0  0  0
    2.2222   -5.2752    5.9861 H   0  0  0  0  0  0  0  0  0  0  0  0
    1.9808   -3.6532    4.6664 C   0  0  0  0  0  0  0  0  0  0  0  0
    1.3204   -4.2010    3.8090 O   0  0  0  0  0  0  0  0  0  0  0  0
    3.9283   -5.1878    4.6801 C   0  0  0  0  0  0  0  0  0  0  0  0
    4.9458   -5.8177    5.5966 C   0  0  0  0  0  0  0  0  0  0  0  0
    5.9237   -6.8406    5.2856 C   0  0  0  0  0  0  0  0  0  0  0  0
    6.2261   -7.5373    4.1116 C   0  0  0  0  0  0  0  0  0  0  0  0
    7.2394   -8.4612    4.1820 C   0  0  0  0  0  0  0  0  0  0  0  0
    7.9364   -8.7009    5.3550 C   0  0  0  0  0  0  0  0  0  0  0  0
    7.6590   -8.0251    6.5306 C   0  0  0  0  0  0  0  0  0  0  0  0
    6.6354   -7.0805    6.4890 C   0  0  0  0  0  0  0  0  0  0  0  0
    6.1128   -6.2543    7.4419 N   0  0  0  0  0  0  0  0  0  0  0  0
    6.4127   -6.2050    8.3630 H   0  0  0  0  0  0  0  0  0  0  0  0
    5.1017   -5.5051    6.9012 C   0  0  0  0  0  0  0  0  0  0  0  0
    4.2581   -4.4773    7.6206 C   0  0  1  0  0  0  0  0  0  0  0  0
    3.5728   -4.9753    8.3065 H   0  0  0  0  0  0  0  0  0  0  0  0
    5.1468   -3.5280    8.3822 C   0  0  0  0  0  0  0  0  0  0  0  0
    4.9015   -3.2762    9.7193 C   0  0  0  0  0  0  0  0  0  0  0  0
    5.7141   -2.4066   10.4224 C   0  0  0  0  0  0  0  0  0  0  0  0
    6.7770   -1.7845    9.7877 C   0  0  0  0  0  0  0  0  0  0  0  0
    7.0240   -2.0381    8.4408 C   0  0  0  0  0  0  0  0  0  0  0  0
    6.2089   -2.9153    7.7439 C   0  0  0  0  0  0  0  0  0  0  0  0
    8.1136   -1.3130    8.0530 O   0  0  0  0  0  0  0  0  0  0  0  0
    8.2831   -0.3029    9.0650 C   0  0  0  0  0  0  0  0  0  0  0  0
    7.7118   -0.9006   10.2438 O   0  0  0  0  0  0  0  0  0  0  0  0
   -2.8380    1.1013    2.6139 H   0  0  0  0  0  0  0  0  0  0  0  0
   -3.3608    1.0626    0.9129 H   0  0  0  0  0  0  0  0  0  0  0  0
   -3.2787   -0.4464    1.8532 H   0  0  0  0  0  0  0  0  0  0  0  0
   -2.1611   -0.6153    3.6089 H   0  0  0  0  0  0  0  0  0  0  0  0
   -0.6718   -1.8046    5.1657 H   0  0  0  0  0  0  0  0  0  0  0  0
    2.5669   -1.3498    2.4117 H   0  0  0  0  0  0  0  0  0  0  0  0
    1.0733   -0.1700    0.8518 H   0  0  0  0  0  0  0  0  0  0  0  0
    3.2841   -0.8574    5.2417 H   0  0  0  0  0  0  0  0  0  0  0  0
    1.9021   -0.9687    6.3473 H   0  0  0  0  0  0  0  0  0  0  0  0
    3.4709   -5.9573    4.0582 H   0  0  0  0  0  0  0  0  0  0  0  0
    4.4159   -4.4461    4.0475 H   0  0  0  0  0  0  0  0  0  0  0  0
    5.6877   -7.3574    3.1928 H   0  0  0  0  0  0  0  0  0  0  0  0
    7.5011   -9.0189    3.2950 H   0  0  0  0  0  0  0  0  0  0  0  0
    8.7231   -9.4409    5.3521 H   0  0  0  0  0  0  0  0  0  0  0  0
    8.2107   -8.2206    7.4382 H   0  0  0  0  0  0  0  0  0  0  0  0
    4.0730   -3.7597   10.2155 H   0  0  0  0  0  0  0  0  0  0  0  0
    5.5202   -2.2118   11.4668 H   0  0  0  0  0  0  0  0  0  0  0  0
    6.4008   -3.1173    6.7005 H   0  0  0  0  0  0  0  0  0  0  0  0
    9.3407   -0.0883    9.2186 H   0  0  0  0  0  0  0  0  0  0  0  0
    7.7425    0.6043    8.7951 H   0  0  0  0  0  0  0  0  0  0  0  0
  1  2  1  0  0  0  0
  1 40  1  0  0  0  0
  1 41  1  0  0  0  0
  1 42  1  0  0  0  0
  2  3  1  0  0  0  0
  3  8  2  0  0  0  0
  3  4  1  0  0  0  0
  4  5  2  0  0  0  0
  4 43  1  0  0  0  0
  5  6  1  0  0  0  0
  5 44  1  0  0  0  0
  6  7  2  0  0  0  0
  6  9  1  0  0  0  0
  7  8  1  0  0  0  0
  7 45  1  0  0  0  0
  8 46  1  0  0  0  0
  9 16  1  0  0  0  0
  9 10  1  0  0  0  0
 10 11  1  0  0  0  0
 10 47  1  0  0  0  0
 10 48  1  0  0  0  0
 11 12  2  0  0  0  0
 11 13  1  0  0  0  0
 13 29  1  0  0  0  0
 13 14  1  0  0  0  0
 14 15  1  0  0  0  0
 14 16  1  0  0  0  0
 14 18  1  0  0  0  0
 16 17  2  0  0  0  0
 18 19  1  0  0  0  0
 18 49  1  0  0  0  0
 18 50  1  0  0  0  0
 19 28  2  0  0  0  0
 19 20  1  0  0  0  0
 20 25  2  0  0  0  0
 20 21  1  0  0  0  0
 21 22  2  0  0  0  0
 21 51  1  0  0  0  0
 22 23  1  0  0  0  0
 22 52  1  0  0  0  0
 23 24  2  0  0  0  0
 23 53  1  0  0  0  0
 24 25  1  0  0  0  0
 24 54  1  0  0  0  0
 25 26  1  0  0  0  0
 26 27  1  0  0  0  0
 26 28  1  0  0  0  0
 28 29  1  0  0  0  0
 29 30  1  0  0  0  0
 29 31  1  0  0  0  0
 31 36  2  0  0  0  0
 31 32  1  0  0  0  0
 32 33  2  0  0  0  0
 32 55  1  0  0  0  0
 33 34  1  0  0  0  0
 33 56  1  0  0  0  0
 34 39  1  0  0  0  0
 34 35  2  0  0  0  0
 35 36  1  0  0  0  0
 35 37  1  0  0  0  0
 36 57  1  0  0  0  0
 37 38  1  0  0  0  0
 38 39  1  0  0  0  0
 38 58  1  0  0  0  0
 38 59  1  0  0  0  0
M  END
$$$$
CHEMBL178693
  -OEChem-07121202283D

 70 77  0     1  0  0  0  0  0999 V2000
   -0.6642    0.9458   -0.0594 C   0  0  0  0  0  0  0  0  0  0  0  0
   -0.2811   -0.5075    0.0511 C   0  0  0  0  0  0  0  0  0  0  0  0
   -0.4241   -1.4029   -0.8882 N   0  0  0  0  0  0  0  0  0  0  0  0
    0.0194   -2.5870   -0.4491 C   0  0  0  0  0  0  0  0  0  0  0  0
    0.4606   -2.4210    0.8270 C   0  0  0  0  0  0  0  0  0  0  0  0
    0.2714   -1.0934    1.1364 N   0  0  0  0  0  0  0  0  0  0  0  0
    0.6031   -0.4394    2.4046 C   0  0  0  0  0  0  0  0  0  0  0  0
   -0.6455   -0.2918    3.2354 C   0  0  0  0  0  0  0  0  0  0  0  0
   -1.3561    0.8936    3.2106 C   0  0  0  0  0  0  0  0  0  0  0  0
   -2.5015    1.0289    3.9727 C   0  0  0  0  0  0  0  0  0  0  0  0
   -2.9365   -0.0214    4.7591 C   0  0  0  0  0  0  0  0  0  0  0  0
   -2.2264   -1.2072    4.7832 C   0  0  0  0  0  0  0  0  0  0  0  0
   -1.0834   -1.3440    4.0178 C   0  0  0  0  0  0  0  0  0  0  0  0
    1.0363   -3.4616    1.7070 C   0  0  0  0  0  0  0  0  0  0  0  0
    1.2037   -3.2310    3.0766 C   0  0  0  0  0  0  0  0  0  0  0  0
    1.7211   -4.1860    3.8288 N   0  0  0  0  0  0  0  0  0  0  0  0
    2.0789   -5.3482    3.3022 C   0  0  0  0  0  0  0  0  0  0  0  0
    1.9367   -5.6048    2.0098 N   0  0  0  0  0  0  0  0  0  0  0  0
    1.4219   -4.7038    1.1921 C   0  0  0  0  0  0  0  0  0  0  0  0
    2.6171   -6.3221    4.1256 N   0  0  0  0  0  0  0  0  0  0  0  0
    2.8442   -6.2246    5.5712 C   0  0  0  0  0  0  0  0  0  0  0  0
    3.4457   -7.5318    6.0246 C   0  0  0  0  0  0  0  0  0  0  0  0
    3.8490   -7.9515    7.3165 C   0  0  0  0  0  0  0  0  0  0  0  0
    4.4112   -9.3042    7.4606 C   0  0  0  0  0  0  0  0  0  0  0  0
    4.8313   -9.7940    8.6969 C   0  0  0  0  0  0  0  0  0  0  0  0
    5.3471  -11.0569    8.7845 C   0  0  0  0  0  0  0  0  0  0  0  0
    5.4554  -11.8542    7.6533 C   0  0  0  0  0  0  0  0  0  0  0  0
    5.0466  -11.3892    6.4228 C   0  0  0  0  0  0  0  0  0  0  0  0
    4.5178  -10.1060    6.3108 C   0  0  0  0  0  0  0  0  0  0  0  0
    4.0993   -9.6105    5.0992 N   0  0  0  0  0  0  0  0  0  0  0  0
    3.5792   -8.3585    4.9676 C   0  0  0  0  0  0  0  0  0  0  0  0
    3.0680   -7.6591    3.7279 C   0  0  2  0  0  0  0  0  0  0  0  0
    4.1780   -7.5438    2.7151 C   0  0  0  0  0  0  0  0  0  0  0  0
    5.1369   -6.5561    2.8461 C   0  0  0  0  0  0  0  0  0  0  0  0
    6.1573   -6.4487    1.9243 C   0  0  0  0  0  0  0  0  0  0  0  0
    6.2304   -7.3351    0.8524 C   0  0  0  0  0  0  0  0  0  0  0  0
    5.2574   -8.3182    0.7274 C   0  0  0  0  0  0  0  0  0  0  0  0
    4.2444   -8.4293    1.6542 C   0  0  0  0  0  0  0  0  0  0  0  0
    5.5792   -9.1049   -0.5284 C   0  0  0  0  0  0  0  0  0  0  0  0
    6.5872   -8.1722   -1.2408 C   0  0  0  0  0  0  0  0  0  0  0  0
    7.1454   -7.4167   -0.1523 O   0  0  0  0  0  0  0  0  0  0  0  0
    3.7342   -7.2132    8.2810 O   0  0  0  0  0  0  0  0  0  0  0  0
    0.1810    1.5162   -0.4446 H   0  0  0  0  0  0  0  0  0  0  0  0
   -1.5109    1.0478   -0.7382 H   0  0  0  0  0  0  0  0  0  0  0  0
   -0.9399    1.3247    0.9248 H   0  0  0  0  0  0  0  0  0  0  0  0
    0.0256   -3.5107   -1.0087 H   0  0  0  0  0  0  0  0  0  0  0  0
    1.3304   -1.0443    2.9461 H   0  0  0  0  0  0  0  0  0  0  0  0
    1.0257    0.5455    2.2059 H   0  0  0  0  0  0  0  0  0  0  0  0
   -1.0163    1.7142    2.5962 H   0  0  0  0  0  0  0  0  0  0  0  0
   -3.0563    1.9554    3.9539 H   0  0  0  0  0  0  0  0  0  0  0  0
   -3.8310    0.0846    5.3550 H   0  0  0  0  0  0  0  0  0  0  0  0
   -2.5661   -2.0276    5.3979 H   0  0  0  0  0  0  0  0  0  0  0  0
   -0.5307   -2.2717    4.0337 H   0  0  0  0  0  0  0  0  0  0  0  0
    0.9146   -2.2861    3.5125 H   0  0  0  0  0  0  0  0  0  0  0  0
    1.3043   -4.9216    0.1408 H   0  0  0  0  0  0  0  0  0  0  0  0
    3.5331   -5.4070    5.7833 H   0  0  0  0  0  0  0  0  0  0  0  0
    1.8974   -6.0553    6.0840 H   0  0  0  0  0  0  0  0  0  0  0  0
    4.7500   -9.1784    9.5806 H   0  0  0  0  0  0  0  0  0  0  0  0
    5.6732  -11.4373    9.7413 H   0  0  0  0  0  0  0  0  0  0  0  0
    5.8650  -12.8498    7.7388 H   0  0  0  0  0  0  0  0  0  0  0  0
    5.1351  -12.0174    5.5489 H   0  0  0  0  0  0  0  0  0  0  0  0
    2.2349   -8.2188    3.3025 H   0  0  0  0  0  0  0  0  0  0  0  0
    5.0863   -5.8648    3.6743 H   0  0  0  0  0  0  0  0  0  0  0  0
    6.9025   -5.6748    2.0342 H   0  0  0  0  0  0  0  0  0  0  0  0
    3.5002   -9.2051    1.5506 H   0  0  0  0  0  0  0  0  0  0  0  0
    6.0406  -10.0611   -0.2816 H   0  0  0  0  0  0  0  0  0  0  0  0
    4.6863   -9.2504   -1.1365 H   0  0  0  0  0  0  0  0  0  0  0  0
    7.3604   -8.7521   -1.7448 H   0  0  0  0  0  0  0  0  0  0  0  0
    6.0753   -7.5155   -1.9441 H   0  0  0  0  0  0  0  0  0  0  0  0
    4.1769  -10.1711    4.3114 H   0  0  0  0  0  0  0  0  0  0  0  0
  1  2  1  0  0  0  0
  1 43  1  0  0  0  0
  1 44  1  0  0  0  0
  1 45  1  0  0  0  0
  2  6  1  0  0  0  0
  2  3  2  0  0  0  0
  3  4  1  0  0  0  0
  4  5  2  0  0  0  0
  4 46  1  0  0  0  0
  5  6  1  0  0  0  0
  5 14  1  0  0  0  0
  6  7  1  0  0  0  0
  7  8  1  0  0  0  0
  7 47  1  0  0  0  0
  7 48  1  0  0  0  0
  8 13  2  0  0  0  0
  8  9  1  0  0  0  0
  9 10  2  0  0  0  0
  9 49  1  0  0  0  0
 10 11  1  0  0  0  0
 10 50  1  0  0  0  0
 11 12  2  0  0  0  0
 11 51  1  0  0  0  0
 12 13  1  0  0  0  0
 12 52  1  0  0  0  0
 13 53  1  0  0  0  0
 14 19  2  0  0  0  0
 14 15  1  0  0  0  0
 15 16  2  0  0  0  0
 15 54  1  0  0  0  0
 16 17  1  0  0  0  0
 17 18  2  0  0  0  0
 17 20  1  0  0  0  0
 18 19  1  0  0  0  0
 19 55  1  0  0  0  0
 20 32  1  0  0  0  0
 20 21  1  0  0  0  0
 21 22  1  0  0  0  0
 21 56  1  0  0  0  0
 21 57  1  0  0  0  0
 22 31  2  0  0  0  0
 22 23  1  0  0  0  0
 23 24  1  0  0  0  0
 23 42  2  0  0  0  0
 24 29  2  0  0  0  0
 24 25  1  0  0  0  0
 25 26  2  0  0  0  0
 25 58  1  0  0  0  0
 26 27  1  0  0  0  0
 26 59  1  0  0  0  0
 27 28  2  0  0  0  0
 27 60  1  0  0  0  0
 28 29  1  0  0  0  0
 28 61  1  0  0  0  0
 29 30  1  0  0  0  0
 30 31  1  0  0  0  0
 30 70  1  0  0  0  0
 31 32  1  0  0  0  0
 32 33  1  0  0  0  0
 32 62  1  0  0  0  0
 33 38  2  0  0  0  0
 33 34  1  0  0  0  0
 34 35  2  0  0  0  0
 34 63  1  0  0  0  0
 35 36  1  0  0  0  0
 35 64  1  0  0  0  0
 36 41  1  0  0  0  0
 36 37  2  0  0  0  0
 37 38  1  0  0  0  0
 37 39  1  0  0  0  0
 38 65  1  0  0  0  0
 39 40  1  0  0  0  0
 39 66  1  0  0  0  0
 39 67  1  0  0  0  0
 40 41  1  0  0  0  0
 40 68  1  0  0  0  0
 40 69  1  0  0  0  0
M  END
$$$$
CHEMBL178693
  -OEChem-07121202283D

 71 78  0     1  0  0  0  0  0999 V2000
   -0.6642    0.9458   -0.0594 C   0  0  0  0  0  0  0  0  0  0  0  0
   -0.2811   -0.5075    0.0511 C   0  0  0  0  0  0  0  0  0  0  0  0
   -0.4241   -1.4029   -0.8882 N   0  3  0  0  0  0  0  0  0  0  0  0
    0.0194   -2.5870   -0.4491 C   0  0  0  0  0  0  0  0  0  0  0  0
    0.4606   -2.4210    0.8270 C   0  0  0  0  0  0  0  0  0  0  0  0
    0.2714   -1.0934    1.1364 N   0  0  0  0  0  0  0  0  0  0  0  0
    0.6031   -0.4394    2.4046 C   0  0  0  0  0  0  0  0  0  0  0  0
   -0.6455   -0.2918    3.2354 C   0  0  0  0  0  0  0  0  0  0  0  0
   -1.3561    0.8936    3.2106 C   0  0  0  0  0  0  0  0  0  0  0  0
   -2.5015    1.0289    3.9727 C   0  0  0  0  0  0  0  0  0  0  0  0
   -2.9365   -0.0214    4.7591 C   0  0  0  0  0  0  0  0  0  0  0  0
   -2.2264   -1.2072    4.7832 C   0  0  0  0  0  0  0  0  0  0  0  0
   -1.0834   -1.3440    4.0178 C   0  0  0  0  0  0  0  0  0  0  0  0
    1.0363   -3.4616    1.7070 C   0  0  0  0  0  0  0  0  0  0  0  0
    1.2037   -3.2310    3.0766 C   0  0  0  0  0  0  0  0  0  0  0  0
    1.7211   -4.1860    3.8288 N   0  0  0  0  0  0  0  0  0  0  0  0
    2.0789   -5.3482    3.3022 C   0  0  0  0  0  0  0  0  0  0  0  0
    1.9367   -5.6048    2.0098 N   0  0  0  0  0  0  0  0  0  0  0  0
    1.4219   -4.7038    1.1921 C   0  0  0  0  0  0  0  0  0  0  0  0
    2.6171   -6.3221    4.1256 N   0  0  0  0  0  0  0  0  0  0  0  0
    2.8442   -6.2246    5.5712 C   0  0  0  0  0  0  0  0  0  0  0  0
    3.4457   -7.5318    6.0246 C   0  0  0  0  0  0  0  0  0  0  0  0
    3.8490   -7.9515    7.3165 C   0  0  0  0  0  0  0  0  0  0  0  0
    4.4112   -9.3042    7.4606 C   0  0  0  0  0  0  0  0  0  0  0  0
    4.8313   -9.7940    8.6969 C   0  0  0  0  0  0  0  0  0  0  0  0
    5.3471  -11.0569    8.7845 C   0  0  0  0  0  0  0  0  0  0  0  0
    5.4554  -11.8542    7.6533 C   0  0  0  0  0  0  0  0  0  0  0  0
    5.0466  -11.3892    6.4228 C   0  0  0  0  0  0  0  0  0  0  0  0
    4.5178  -10.1060    6.3108 C   0  0  0  0  0  0  0  0  0  0  0  0
    4.0993   -9.6105    5.0992 N   0  0  0  0  0  0  0  0  0  0  0  0
    3.5792   -8.3585    4.9676 C   0  0  0  0  0  0  0  0  0  0  0  0
    3.0680   -7.6591    3.7279 C   0  0  2  0  0  0  0  0  0  0  0  0
    4.1780   -7.5438    2.7151 C   0  0  0  0  0  0  0  0  0  0  0  0
    5.1369   -6.5561    2.8461 C   0  0  0  0  0  0  0  0  0  0  0  0
    6.1573   -6.4487    1.9243 C   0  0  0  0  0  0  0  0  0  0  0  0
    6.2304   -7.3351    0.8524 C   0  0  0  0  0  0  0  0  0  0  0  0
    5.2574   -8.3182    0.7274 C   0  0  0  0  0  0  0  0  0  0  0  0
    4.2444   -8.4293    1.6542 C   0  0  0  0  0  0  0  0  0  0  0  0
    5.5792   -9.1049   -0.5284 C   0  0  0  0  0  0  0  0  0  0  0  0
    6.5872   -8.1722   -1.2408 C   0  0  0  0  0  0  0  0  0  0  0  0
    7.1454   -7.4167   -0.1523 O   0  0  0  0  0  0  0  0  0  0  0  0
    3.7342   -7.2132    8.2810 O   0  0  0  0  0  0  0  0  0  0  0  0
    0.1810    1.5162   -0.4446 H   0  0  0  0  0  0  0  0  0  0  0  0
   -1.5109    1.0478   -0.7382 H   0  0  0  0  0  0  0  0  0  0  0  0
   -0.9399    1.3247    0.9248 H   0  0  0  0  0  0  0  0  0  0  0  0
    0.0256   -3.5107   -1.0087 H   0  0  0  0  0  0  0  0  0  0  0  0
    1.3304   -1.0443    2.9461 H   0  0  0  0  0  0  0  0  0  0  0  0
    1.0257    0.5455    2.2059 H   0  0  0  0  0  0  0  0  0  0  0  0
   -1.0163    1.7142    2.5962 H   0  0  0  0  0  0  0  0  0  0  0  0
   -3.0563    1.9554    3.9539 H   0  0  0  0  0  0  0  0  0  0  0  0
   -3.8310    0.0846    5.3550 H   0  0  0  0  0  0  0  0  0  0  0  0
   -2.5661   -2.0276    5.3979 H   0  0  0  0  0  0  0  0  0  0  0  0
   -0.5307   -2.2717    4.0337 H   0  0  0  0  0  0  0  0  0  0  0  0
    0.9146   -2.2861    3.5125 H   0  0  0  0  0  0  0  0  0  0  0  0
    1.3043   -4.9216    0.1408 H   0  0  0  0  0  0  0  0  0  0  0  0
    3.5331   -5.4070    5.7833 H   0  0  0  0  0  0  0  0  0  0  0  0
    1.8974   -6.0553    6.0840 H   0  0  0  0  0  0  0  0  0  0  0  0
    4.7500   -9.1784    9.5806 H   0  0  0  0  0  0  0  0  0  0  0  0
    5.6732  -11.4373    9.7413 H   0  0  0  0  0  0  0  0  0  0  0  0
    5.8650  -12.8498    7.7388 H   0  0  0  0  0  0  0  0  0  0  0  0
    5.1351  -12.0174    5.5489 H   0  0  0  0  0  0  0  0  0  0  0  0
    2.2349   -8.2188    3.3025 H   0  0  0  0  0  0  0  0  0  0  0  0
    5.0863   -5.8648    3.6743 H   0  0  0  0  0  0  0  0  0  0  0  0
    6.9025   -5.6748    2.0342 H   0  0  0  0  0  0  0  0  0  0  0  0
    3.5002   -9.2051    1.5506 H   0  0  0  0  0  0  0  0  0  0  0  0
    6.0406  -10.0611   -0.2816 H   0  0  0  0  0  0  0  0  0  0  0  0
    4.6863   -9.2504   -1.1365 H   0  0  0  0  0  0  0  0  0  0  0  0
    7.3604   -8.7521   -1.7448 H   0  0  0  0  0  0  0  0  0  0  0  0
    6.0753   -7.5155   -1.9441 H   0  0  0  0  0  0  0  0  0  0  0  0
    4.1769  -10.1711    4.3114 H   0  0  0  0  0  0  0  0  0  0  0  0
   -0.7952   -1.2359   -1.7687 H   0  0  0  0  0  0  0  0  0  0  0  0
  1  2  1  0  0  0  0
  1 43  1  0  0  0  0
  1 44  1  0  0  0  0
  1 45  1  0  0  0  0
  2  6  1  0  0  0  0
  2  3  2  0  0  0  0
  3  4  1  0  0  0  0
  3 71  1  0  0  0  0
  4  5  2  0  0  0  0
  4 46  1  0  0  0  0
  5  6  1  0  0  0  0
  5 14  1  0  0  0  0
  6  7  1  0  0  0  0
  7  8  1  0  0  0  0
  7 47  1  0  0  0  0
  7 48  1  0  0  0  0
  8 13  2  0  0  0  0
  8  9  1  0  0  0  0
  9 10  2  0  0  0  0
  9 49  1  0  0  0  0
 10 11  1  0  0  0  0
 10 50  1  0  0  0  0
 11 12  2  0  0  0  0
 11 51  1  0  0  0  0
 12 13  1  0  0  0  0
 12 52  1  0  0  0  0
 13 53  1  0  0  0  0
 14 19  2  0  0  0  0
 14 15  1  0  0  0  0
 15 16  2  0  0  0  0
 15 54  1  0  0  0  0
 16 17  1  0  0  0  0
 17 18  2  0  0  0  0
 17 20  1  0  0  0  0
 18 19  1  0  0  0  0
 19 55  1  0  0  0  0
 20 32  1  0  0  0  0
 20 21  1  0  0  0  0
 21 22  1  0  0  0  0
 21 56  1  0  0  0  0
 21 57  1  0  0  0  0
 22 31  2  0  0  0  0
 22 23  1  0  0  0  0
 23 24  1  0  0  0  0
 23 42  2  0  0  0  0
 24 29  2  0  0  0  0
 24 25  1  0  0  0  0
 25 26  2  0  0  0  0
 25 58  1  0  0  0  0
 26 27  1  0  0  0  0
 26 59  1  0  0  0  0
 27 28  2  0  0  0  0
 27 60  1  0  0  0  0
 28 29  1  0  0  0  0
 28 61  1  0  0  0  0
 29 30  1  0  0  0  0
 30 31  1  0  0  0  0
 30 70  1  0  0  0  0
 31 32  1  0  0  0  0
 32 33  1  0  0  0  0
 32 62  1  0  0  0  0
 33 38  2  0  0  0  0
 33 34  1  0  0  0  0
 34 35  2  0  0  0  0
 34 63  1  0  0  0  0
 35 36  1  0  0  0  0
 35 64  1  0  0  0  0
 36 41  1  0  0  0  0
 36 37  2  0  0  0  0
 37 38  1  0  0  0  0
 37 39  1  0  0  0  0
 38 65  1  0  0  0  0
 39 40  1  0  0  0  0
 39 66  1  0  0  0  0
 39 67  1  0  0  0  0
 40 41  1  0  0  0  0
 40 68  1  0  0  0  0
 40 69  1  0  0  0  0
M  CHG  1   3   1
M  END
$$$$
CHEMBL178693
  -OEChem-07121202283D

 70 77  0     1  0  0  0  0  0999 V2000
   -0.6642    0.9458   -0.0594 C   0  0  0  0  0  0  0  0  0  0  0  0
   -0.2811   -0.5075    0.0511 C   0  0  0  0  0  0  0  0  0  0  0  0
   -0.4241   -1.4029   -0.8882 N   0  0  0  0  0  0  0  0  0  0  0  0
    0.0194   -2.5870   -0.4491 C   0  0  0  0  0  0  0  0  0  0  0  0
    0.4606   -2.4210    0.8270 C   0  0  0  0  0  0  0  0  0  0  0  0
    0.2714   -1.0934    1.1364 N   0  0  0  0  0  0  0  0  0  0  0  0
    0.6031   -0.4394    2.4046 C   0  0  0  0  0  0  0  0  0  0  0  0
   -0.6455   -0.2918    3.2354 C   0  0  0  0  0  0  0  0  0  0  0  0
   -1.3561    0.8936    3.2106 C   0  0  0  0  0  0  0  0  0  0  0  0
   -2.5015    1.0289    3.9727 C   0  0  0  0  0  0  0  0  0  0  0  0
   -2.9365   -0.0214    4.7591 C   0  0  0  0  0  0  0  0  0  0  0  0
   -2.2264   -1.2072    4.7832 C   0  0  0  0  0  0  0  0  0  0  0  0
   -1.0834   -1.3440    4.0178 C   0  0  0  0  0  0  0  0  0  0  0  0
    1.0363   -3.4616    1.7070 C   0  0  0  0  0  0  0  0  0  0  0  0
    1.2037   -3.2310    3.0766 C   0  0  0  0  0  0  0  0  0  0  0  0
    1.7211   -4.1860    3.8288 N   0  0  0  0  0  0  0  0  0  0  0  0
    2.0789   -5.3482    3.3022 C   0  0  0  0  0  0  0  0  0  0  0  0
    1.9367   -5.6048    2.0098 N   0  0  0  0  0  0  0  0  0  0  0  0
    1.4219   -4.7038    1.1921 C   0  0  0  0  0  0  0  0  0  0  0  0
    2.6171   -6.3221    4.1256 N   0  0  0  0  0  0  0  0  0  0  0  0
    2.8442   -6.2246    5.5712 C   0  0  0  0  0  0  0  0  0  0  0  0
    3.4457   -7.5318    6.0246 C   0  0  0  0  0  0  0  0  0  0  0  0
    3.8490   -7.9515    7.3165 C   0  0  0  0  0  0  0  0  0  0  0  0
    4.4112   -9.3042    7.4606 C   0  0  0  0  0  0  0  0  0  0  0  0
    4.8313   -9.7940    8.6969 C   0  0  0  0  0  0  0  0  0  0  0  0
    5.3471  -11.0569    8.7845 C   0  0  0  0  0  0  0  0  0  0  0  0
    5.4554  -11.8542    7.6533 C   0  0  0  0  0  0  0  0  0  0  0  0
    5.0466  -11.3892    6.4228 C   0  0  0  0  0  0  0  0  0  0  0  0
    4.5178  -10.1060    6.3108 C   0  0  0  0  0  0  0  0  0  0  0  0
    4.0993   -9.6105    5.0992 N   0  0  0  0  0  0  0  0  0  0  0  0
    3.5792   -8.3585    4.9676 C   0  0  0  0  0  0  0  0  0  0  0  0
    3.0680   -7.6591    3.7279 C   0  0  1  0  0  0  0  0  0  0  0  0
    1.9162   -8.4328    3.1398 C   0  0  0  0  0  0  0  0  0  0  0  0
    0.6496   -8.3102    3.6811 C   0  0  0  0  0  0  0  0  0  0  0  0
   -0.4089   -9.0128    3.1440 C   0  0  0  0  0  0  0  0  0  0  0  0
   -0.2106   -9.8529    2.0509 C   0  0  0  0  0  0  0  0  0  0  0  0
    1.0673   -9.9735    1.5207 C   0  0  0  0  0  0  0  0  0  0  0  0
    2.1212   -9.2639    2.0528 C   0  0  0  0  0  0  0  0  0  0  0  0
    0.9808  -10.9602    0.3724 C   0  0  0  0  0  0  0  0  0  0  0  0
   -0.3922  -11.6266    0.6259 C   0  0  0  0  0  0  0  0  0  0  0  0
   -1.1030  -10.6190    1.3653 O   0  0  0  0  0  0  0  0  0  0  0  0
    3.7342   -7.2132    8.2810 O   0  0  0  0  0  0  0  0  0  0  0  0
    0.1810    1.5162   -0.4446 H   0  0  0  0  0  0  0  0  0  0  0  0
   -1.5109    1.0478   -0.7382 H   0  0  0  0  0  0  0  0  0  0  0  0
   -0.9399    1.3247    0.9248 H   0  0  0  0  0  0  0  0  0  0  0  0
    0.0256   -3.5107   -1.0087 H   0  0  0  0  0  0  0  0  0  0  0  0
    1.3304   -1.0443    2.9461 H   0  0  0  0  0  0  0  0  0  0  0  0
    1.0257    0.5455    2.2059 H   0  0  0  0  0  0  0  0  0  0  0  0
   -1.0163    1.7142    2.5962 H   0  0  0  0  0  0  0  0  0  0  0  0
   -3.0563    1.9554    3.9539 H   0  0  0  0  0  0  0  0  0  0  0  0
   -3.8310    0.0846    5.3550 H   0  0  0  0  0  0  0  0  0  0  0  0
   -2.5661   -2.0276    5.3979 H   0  0  0  0  0  0  0  0  0  0  0  0
   -0.5307   -2.2717    4.0337 H   0  0  0  0  0  0  0  0  0  0  0  0
    0.9146   -2.2861    3.5125 H   0  0  0  0  0  0  0  0  0  0  0  0
    1.3043   -4.9216    0.1408 H   0  0  0  0  0  0  0  0  0  0  0  0
    3.5331   -5.4070    5.7833 H   0  0  0  0  0  0  0  0  0  0  0  0
    1.8974   -6.0553    6.0840 H   0  0  0  0  0  0  0  0  0  0  0  0
    4.7500   -9.1784    9.5806 H   0  0  0  0  0  0  0  0  0  0  0  0
    5.6732  -11.4373    9.7413 H   0  0  0  0  0  0  0  0  0  0  0  0
    5.8650  -12.8498    7.7388 H   0  0  0  0  0  0  0  0  0  0  0  0
    5.1351  -12.0174    5.5489 H   0  0  0  0  0  0  0  0  0  0  0  0
    3.8708   -7.5757    2.9953 H   0  0  0  0  0  0  0  0  0  0  0  0
    0.4884   -7.6611    4.5291 H   0  0  0  0  0  0  0  0  0  0  0  0
   -1.3950   -8.9110    3.5724 H   0  0  0  0  0  0  0  0  0  0  0  0
    3.1078   -9.3591    1.6241 H   0  0  0  0  0  0  0  0  0  0  0  0
    0.9916  -10.4432   -0.5871 H   0  0  0  0  0  0  0  0  0  0  0  0
    1.7856  -11.6933    0.4273 H   0  0  0  0  0  0  0  0  0  0  0  0
   -0.8965  -11.8423   -0.3160 H   0  0  0  0  0  0  0  0  0  0  0  0
   -0.2777  -12.5330    1.2203 H   0  0  0  0  0  0  0  0  0  0  0  0
    4.1769  -10.1711    4.3114 H   0  0  0  0  0  0  0  0  0  0  0  0
  1  2  1  0  0  0  0
  1 43  1  0  0  0  0
  1 44  1  0  0  0  0
  1 45  1  0  0  0  0
  2  6  1  0  0  0  0
  2  3  2  0  0  0  0
  3  4  1  0  0  0  0
  4  5  2  0  0  0  0
  4 46  1  0  0  0  0
  5  6  1  0  0  0  0
  5 14  1  0  0  0  0
  6  7  1  0  0  0  0
  7  8  1  0  0  0  0
  7 47  1  0  0  0  0
  7 48  1  0  0  0  0
  8 13  2  0  0  0  0
  8  9  1  0  0  0  0
  9 10  2  0  0  0  0
  9 49  1  0  0  0  0
 10 11  1  0  0  0  0
 10 50  1  0  0  0  0
 11 12  2  0  0  0  0
 11 51  1  0  0  0  0
 12 13  1  0  0  0  0
 12 52  1  0  0  0  0
 13 53  1  0  0  0  0
 14 19  2  0  0  0  0
 14 15  1  0  0  0  0
 15 16  2  0  0  0  0
 15 54  1  0  0  0  0
 16 17  1  0  0  0  0
 17 18  2  0  0  0  0
 17 20  1  0  0  0  0
 18 19  1  0  0  0  0
 19 55  1  0  0  0  0
 20 32  1  0  0  0  0
 20 21  1  0  0  0  0
 21 22  1  0  0  0  0
 21 56  1  0  0  0  0
 21 57  1  0  0  0  0
 22 31  2  0  0  0  0
 22 23  1  0  0  0  0
 23 24  1  0  0  0  0
 23 42  2  0  0  0  0
 24 29  2  0  0  0  0
 24 25  1  0  0  0  0
 25 26  2  0  0  0  0
 25 58  1  0  0  0  0
 26 27  1  0  0  0  0
 26 59  1  0  0  0  0
 27 28  2  0  0  0  0
 27 60  1  0  0  0  0
 28 29  1  0  0  0  0
 28 61  1  0  0  0  0
 29 30  1  0  0  0  0
 30 31  1  0  0  0  0
 30 70  1  0  0  0  0
 31 32  1  0  0  0  0
 32 33  1  0  0  0  0
 32 62  1  0  0  0  0
 33 38  2  0  0  0  0
 33 34  1  0  0  0  0
 34 35  2  0  0  0  0
 34 63  1  0  0  0  0
 35 36  1  0  0  0  0
 35 64  1  0  0  0  0
 36 41  1  0  0  0  0
 36 37  2  0  0  0  0
 37 38  1  0  0  0  0
 37 39  1  0  0  0  0
 38 65  1  0  0  0  0
 39 40  1  0  0  0  0
 39 66  1  0  0  0  0
 39 67  1  0  0  0  0
 40 41  1  0  0  0  0
 40 68  1  0  0  0  0
 40 69  1  0  0  0  0
M  END
$$$$
CHEMBL178693
  -OEChem-07121202283D

 71 78  0     1  0  0  0  0  0999 V2000
   -0.6642    0.9458   -0.0594 C   0  0  0  0  0  0  0  0  0  0  0  0
   -0.2811   -0.5075    0.0511 C   0  0  0  0  0  0  0  0  0  0  0  0
   -0.4241   -1.4029   -0.8882 N   0  3  0  0  0  0  0  0  0  0  0  0
    0.0194   -2.5870   -0.4491 C   0  0  0  0  0  0  0  0  0  0  0  0
    0.4606   -2.4210    0.8270 C   0  0  0  0  0  0  0  0  0  0  0  0
    0.2714   -1.0934    1.1364 N   0  0  0  0  0  0  0  0  0  0  0  0
    0.6031   -0.4394    2.4046 C   0  0  0  0  0  0  0  0  0  0  0  0
   -0.6455   -0.2918    3.2354 C   0  0  0  0  0  0  0  0  0  0  0  0
   -1.3561    0.8936    3.2106 C   0  0  0  0  0  0  0  0  0  0  0  0
   -2.5015    1.0289    3.9727 C   0  0  0  0  0  0  0  0  0  0  0  0
   -2.9365   -0.0214    4.7591 C   0  0  0  0  0  0  0  0  0  0  0  0
   -2.2264   -1.2072    4.7832 C   0  0  0  0  0  0  0  0  0  0  0  0
   -1.0834   -1.3440    4.0178 C   0  0  0  0  0  0  0  0  0  0  0  0
    1.0363   -3.4616    1.7070 C   0  0  0  0  0  0  0  0  0  0  0  0
    1.2037   -3.2310    3.0766 C   0  0  0  0  0  0  0  0  0  0  0  0
    1.7211   -4.1860    3.8288 N   0  0  0  0  0  0  0  0  0  0  0  0
    2.0789   -5.3482    3.3022 C   0  0  0  0  0  0  0  0  0  0  0  0
    1.9367   -5.6048    2.0098 N   0  0  0  0  0  0  0  0  0  0  0  0
    1.4219   -4.7038    1.1921 C   0  0  0  0  0  0  0  0  0  0  0  0
    2.6171   -6.3221    4.1256 N   0  0  0  0  0  0  0  0  0  0  0  0
    2.8442   -6.2246    5.5712 C   0  0  0  0  0  0  0  0  0  0  0  0
    3.4457   -7.5318    6.0246 C   0  0  0  0  0  0  0  0  0  0  0  0
    3.8490   -7.9515    7.3165 C   0  0  0  0  0  0  0  0  0  0  0  0
    4.4112   -9.3042    7.4606 C   0  0  0  0  0  0  0  0  0  0  0  0
    4.8313   -9.7940    8.6969 C   0  0  0  0  0  0  0  0  0  0  0  0
    5.3471  -11.0569    8.7845 C   0  0  0  0  0  0  0  0  0  0  0  0
    5.4554  -11.8542    7.6533 C   0  0  0  0  0  0  0  0  0  0  0  0
    5.0466  -11.3892    6.4228 C   0  0  0  0  0  0  0  0  0  0  0  0
    4.5178  -10.1060    6.3108 C   0  0  0  0  0  0  0  0  0  0  0  0
    4.0993   -9.6105    5.0992 N   0  0  0  0  0  0  0  0  0  0  0  0
    3.5792   -8.3585    4.9676 C   0  0  0  0  0  0  0  0  0  0  0  0
    3.0680   -7.6591    3.7279 C   0  0  1  0  0  0  0  0  0  0  0  0
    1.9162   -8.4328    3.1398 C   0  0  0  0  0  0  0  0  0  0  0  0
    0.6496   -8.3102    3.6811 C   0  0  0  0  0  0  0  0  0  0  0  0
   -0.4089   -9.0128    3.1440 C   0  0  0  0  0  0  0  0  0  0  0  0
   -0.2106   -9.8529    2.0509 C   0  0  0  0  0  0  0  0  0  0  0  0
    1.0673   -9.9735    1.5207 C   0  0  0  0  0  0  0  0  0  0  0  0
    2.1212   -9.2639    2.0528 C   0  0  0  0  0  0  0  0  0  0  0  0
    0.9808  -10.9602    0.3724 C   0  0  0  0  0  0  0  0  0  0  0  0
   -0.3922  -11.6266    0.6259 C   0  0  0  0  0  0  0  0  0  0  0  0
   -1.1030  -10.6190    1.3653 O   0  0  0  0  0  0  0  0  0  0  0  0
    3.7342   -7.2132    8.2810 O   0  0  0  0  0  0  0  0  0  0  0  0
    0.1810    1.5162   -0.4446 H   0  0  0  0  0  0  0  0  0  0  0  0
   -1.5109    1.0478   -0.7382 H   0  0  0  0  0  0  0  0  0  0  0  0
   -0.9399    1.3247    0.9248 H   0  0  0  0  0  0  0  0  0  0  0  0
    0.0256   -3.5107   -1.0087 H   0  0  0  0  0  0  0  0  0  0  0  0
    1.3304   -1.0443    2.9461 H   0  0  0  0  0  0  0  0  0  0  0  0
    1.0257    0.5455    2.2059 H   0  0  0  0  0  0  0  0  0  0  0  0
   -1.0163    1.7142    2.5962 H   0  0  0  0  0  0  0  0  0  0  0  0
   -3.0563    1.9554    3.9539 H   0  0  0  0  0  0  0  0  0  0  0  0
   -3.8310    0.0846    5.3550 H   0  0  0  0  0  0  0  0  0  0  0  0
   -2.5661   -2.0276    5.3979 H   0  0  0  0  0  0  0  0  0  0  0  0
   -0.5307   -2.2717    4.0337 H   0  0  0  0  0  0  0  0  0  0  0  0
    0.9146   -2.2861    3.5125 H   0  0  0  0  0  0  0  0  0  0  0  0
    1.3043   -4.9216    0.1408 H   0  0  0  0  0  0  0  0  0  0  0  0
    3.5331   -5.4070    5.7833 H   0  0  0  0  0  0  0  0  0  0  0  0
    1.8974   -6.0553    6.0840 H   0  0  0  0  0  0  0  0  0  0  0  0
    4.7500   -9.1784    9.5806 H   0  0  0  0  0  0  0  0  0  0  0  0
    5.6732  -11.4373    9.7413 H   0  0  0  0  0  0  0  0  0  0  0  0
    5.8650  -12.8498    7.7388 H   0  0  0  0  0  0  0  0  0  0  0  0
    5.1351  -12.0174    5.5489 H   0  0  0  0  0  0  0  0  0  0  0  0
    3.8708   -7.5757    2.9953 H   0  0  0  0  0  0  0  0  0  0  0  0
    0.4884   -7.6611    4.5291 H   0  0  0  0  0  0  0  0  0  0  0  0
   -1.3950   -8.9110    3.5724 H   0  0  0  0  0  0  0  0  0  0  0  0
    3.1078   -9.3591    1.6241 H   0  0  0  0  0  0  0  0  0  0  0  0
    0.9916  -10.4432   -0.5871 H   0  0  0  0  0  0  0  0  0  0  0  0
    1.7856  -11.6933    0.4273 H   0  0  0  0  0  0  0  0  0  0  0  0
   -0.8965  -11.8423   -0.3160 H   0  0  0  0  0  0  0  0  0  0  0  0
   -0.2777  -12.5330    1.2203 H   0  0  0  0  0  0  0  0  0  0  0  0
    4.1769  -10.1711    4.3114 H   0  0  0  0  0  0  0  0  0  0  0  0
   -0.7952   -1.2359   -1.7687 H   0  0  0  0  0  0  0  0  0  0  0  0
  1  2  1  0  0  0  0
  1 43  1  0  0  0  0
  1 44  1  0  0  0  0
  1 45  1  0  0  0  0
  2  6  1  0  0  0  0
  2  3  2  0  0  0  0
  3  4  1  0  0  0  0
  3 71  1  0  0  0  0
  4  5  2  0  0  0  0
  4 46  1  0  0  0  0
  5  6  1  0  0  0  0
  5 14  1  0  0  0  0
  6  7  1  0  0  0  0
  7  8  1  0  0  0  0
  7 47  1  0  0  0  0
  7 48  1  0  0  0  0
  8 13  2  0  0  0  0
  8  9  1  0  0  0  0
  9 10  2  0  0  0  0
  9 49  1  0  0  0  0
 10 11  1  0  0  0  0
 10 50  1  0  0  0  0
 11 12  2  0  0  0  0
 11 51  1  0  0  0  0
 12 13  1  0  0  0  0
 12 52  1  0  0  0  0
 13 53  1  0  0  0  0
 14 19  2  0  0  0  0
 14 15  1  0  0  0  0
 15 16  2  0  0  0  0
 15 54  1  0  0  0  0
 16 17  1  0  0  0  0
 17 18  2  0  0  0  0
 17 20  1  0  0  0  0
 18 19  1  0  0  0  0
 19 55  1  0  0  0  0
 20 32  1  0  0  0  0
 20 21  1  0  0  0  0
 21 22  1  0  0  0  0
 21 56  1  0  0  0  0
 21 57  1  0  0  0  0
 22 31  2  0  0  0  0
 22 23  1  0  0  0  0
 23 24  1  0  0  0  0
 23 42  2  0  0  0  0
 24 29  2  0  0  0  0
 24 25  1  0  0  0  0
 25 26  2  0  0  0  0
 25 58  1  0  0  0  0
 26 27  1  0  0  0  0
 26 59  1  0  0  0  0
 27 28  2  0  0  0  0
 27 60  1  0  0  0  0
 28 29  1  0  0  0  0
 28 61  1  0  0  0  0
 29 30  1  0  0  0  0
 30 31  1  0  0  0  0
 30 70  1  0  0  0  0
 31 32  1  0  0  0  0
 32 33  1  0  0  0  0
 32 62  1  0  0  0  0
 33 38  2  0  0  0  0
 33 34  1  0  0  0  0
 34 35  2  0  0  0  0
 34 63  1  0  0  0  0
 35 36  1  0  0  0  0
 35 64  1  0  0  0  0
 36 41  1  0  0  0  0
 36 37  2  0  0  0  0
 37 38  1  0  0  0  0
 37 39  1  0  0  0  0
 38 65  1  0  0  0  0
 39 40  1  0  0  0  0
 39 66  1  0  0  0  0
 39 67  1  0  0  0  0
 40 41  1  0  0  0  0
 40 68  1  0  0  0  0
 40 69  1  0  0  0  0
M  CHG  1   3   1
M  END
$$$$
CHEMBL18745
  -OEChem-07121202283D

 49 52  0     1  0  0  0  0  0999 V2000
   -0.0187    1.5258    0.0104 C   0  0  0  0  0  0  0  0  0  0  0  0
    0.0021   -0.0041    0.0020 C   0  0  0  0  0  0  0  0  0  0  0  0
    0.7421   -0.5109    1.2415 C   0  0  0  0  0  0  0  0  0  0  0  0
    0.7628   -2.0407    1.2331 C   0  0  0  0  0  0  0  0  0  0  0  0
    1.5028   -2.5476    2.4727 C   0  0  0  0  0  0  0  0  0  0  0  0
    1.5236   -4.0774    2.4642 C   0  0  0  0  0  0  0  0  0  0  0  0
    2.2524   -4.5766    3.6851 C   0  0  0  0  0  0  0  0  0  0  0  0
    3.4675   -4.2342    4.0297 N   0  0  0  0  0  0  0  0  0  0  0  0
    0.8684   -5.8434    4.5740 H   0  0  0  0  0  0  0  0  0  0  0  0
    3.8094   -4.8566    5.1619 C   0  0  0  0  0  0  0  0  0  0  0  0
    2.7293   -5.6384    5.5440 C   0  0  0  0  0  0  0  0  0  0  0  0
    1.7497   -5.4384    4.5901 N   0  0  0  0  0  0  0  0  0  0  0  0
    2.8169   -6.4119    6.7205 C   0  0  0  0  0  0  0  0  0  0  0  0
    1.8764   -7.1037    7.0674 O   0  0  0  0  0  0  0  0  0  0  0  0
    3.9409   -6.3842    7.4580 N   0  0  0  0  0  0  0  0  0  0  0  0
    5.0274   -5.6073    7.0843 C   0  0  0  0  0  0  0  0  0  0  0  0
    6.1694   -5.4922    7.7046 N   0  3  0  0  0  0  0  0  0  0  0  0
    7.0592   -4.5722    6.9912 C   0  0  2  0  0  0  0  0  0  0  0  0
    7.9922   -5.0534    6.6977 H   0  0  0  0  0  0  0  0  0  0  0  0
    7.3055   -3.3207    7.8577 C   0  0  0  0  0  0  0  0  0  0  0  0
    7.1505   -2.1360    6.8727 C   0  0  0  0  0  0  0  0  0  0  0  0
    5.9807   -2.5954    5.9678 C   0  0  0  0  0  0  0  0  0  0  0  0
    6.2259   -4.1270    5.7667 C   0  0  2  0  0  0  0  0  0  0  0  0
    6.7174   -4.3608    4.8223 H   0  0  0  0  0  0  0  0  0  0  0  0
    4.9563   -4.8512    5.9426 N   0  0  0  0  0  0  0  0  0  0  0  0
    4.0195   -7.1902    8.6789 C   0  0  0  0  0  0  0  0  0  0  0  0
    1.0039    1.9031    0.0027 H   0  0  0  0  0  0  0  0  0  0  0  0
   -0.5459    1.8868   -0.8726 H   0  0  0  0  0  0  0  0  0  0  0  0
   -0.5289    1.8773    0.9072 H   0  0  0  0  0  0  0  0  0  0  0  0
   -1.0205   -0.3814    0.0098 H   0  0  0  0  0  0  0  0  0  0  0  0
    0.5123   -0.3556   -0.8948 H   0  0  0  0  0  0  0  0  0  0  0  0
    1.7647   -0.1336    1.2338 H   0  0  0  0  0  0  0  0  0  0  0  0
    0.2319   -0.1594    2.1383 H   0  0  0  0  0  0  0  0  0  0  0  0
   -0.2598   -2.4180    1.2409 H   0  0  0  0  0  0  0  0  0  0  0  0
    1.2730   -2.3923    0.3363 H   0  0  0  0  0  0  0  0  0  0  0  0
    2.5254   -2.1703    2.4649 H   0  0  0  0  0  0  0  0  0  0  0  0
    0.9926   -2.1961    3.3695 H   0  0  0  0  0  0  0  0  0  0  0  0
    0.5010   -4.4547    2.4720 H   0  0  0  0  0  0  0  0  0  0  0  0
    2.0337   -4.4289    1.5674 H   0  0  0  0  0  0  0  0  0  0  0  0
    6.5624   -3.2552    8.6525 H   0  0  0  0  0  0  0  0  0  0  0  0
    8.3118   -3.3391    8.2763 H   0  0  0  0  0  0  0  0  0  0  0  0
    6.8904   -1.2217    7.4060 H   0  0  0  0  0  0  0  0  0  0  0  0
    8.0601   -1.9981    6.2881 H   0  0  0  0  0  0  0  0  0  0  0  0
    5.0249   -2.4167    6.4602 H   0  0  0  0  0  0  0  0  0  0  0  0
    6.0176   -2.0818    5.0070 H   0  0  0  0  0  0  0  0  0  0  0  0
    3.0842   -7.7327    8.8170 H   0  0  0  0  0  0  0  0  0  0  0  0
    4.8421   -7.9002    8.5931 H   0  0  0  0  0  0  0  0  0  0  0  0
    4.1907   -6.5374    9.5348 H   0  0  0  0  0  0  0  0  0  0  0  0
    6.3985   -5.9532    8.5267 H   0  0  0  0  0  0  0  0  0  0  0  0
  1  2  1  0  0  0  0
  1 27  1  0  0  0  0
  1 28  1  0  0  0  0
  1 29  1  0  0  0  0
  2  3  1  0  0  0  0
  2 30  1  0  0  0  0
  2 31  1  0  0  0  0
  3  4  1  0  0  0  0
  3 32  1  0  0  0  0
  3 33  1  0  0  0  0
  4  5  1  0  0  0  0
  4 34  1  0  0  0  0
  4 35  1  0  0  0  0
  5  6  1  0  0  0  0
  5 36  1  0  0  0  0
  5 37  1  0  0  0  0
  6 38  1  0  0  0  0
  6 39  1  0  0  0  0
  6  7  1  0  0  0  0
  7  8  2  0  0  0  0
  7 12  1  0  0  0  0
  8 10  1  0  0  0  0
  9 12  1  0  0  0  0
 10 25  1  0  0  0  0
 10 11  2  0  0  0  0
 11 13  1  0  0  0  0
 11 12  1  0  0  0  0
 13 14  2  0  0  0  0
 13 15  1  0  0  0  0
 15 16  1  0  0  0  0
 15 26  1  0  0  0  0
 16 25  1  0  0  0  0
 16 17  2  0  0  0  0
 17 18  1  0  0  0  0
 17 49  1  0  0  0  0
 18 19  1  0  0  0  0
 18 23  1  0  0  0  0
 18 20  1  0  0  0  0
 20 21  1  0  0  0  0
 20 40  1  0  0  0  0
 20 41  1  0  0  0  0
 21 22  1  0  0  0  0
 21 42  1  0  0  0  0
 21 43  1  0  0  0  0
 22 23  1  0  0  0  0
 22 44  1  0  0  0  0
 22 45  1  0  0  0  0
 23 24  1  0  0  0  0
 23 25  1  0  0  0  0
 26 46  1  0  0  0  0
 26 47  1  0  0  0  0
 26 48  1  0  0  0  0
M  CHG  1  17   1
M  END
$$$$
CHEMBL18745
  -OEChem-07121202283D

 49 52  0     1  0  0  0  0  0999 V2000
   -0.0187    1.5258    0.0104 C   0  0  0  0  0  0  0  0  0  0  0  0
    0.0021   -0.0041    0.0020 C   0  0  0  0  0  0  0  0  0  0  0  0
    0.7182   -0.4975   -1.2568 C   0  0  0  0  0  0  0  0  0  0  0  0
    0.7390   -2.0273   -1.2652 C   0  0  0  0  0  0  0  0  0  0  0  0
    1.4551   -2.5207   -2.5240 C   0  0  0  0  0  0  0  0  0  0  0  0
    1.4758   -4.0506   -2.5324 C   0  0  0  0  0  0  0  0  0  0  0  0
    2.1812   -4.5366   -3.7723 C   0  0  0  0  0  0  0  0  0  0  0  0
    3.2448   -5.3917   -3.7891 N   0  0  0  0  0  0  0  0  0  0  0  0
    3.6737   -5.7883   -3.0148 H   0  0  0  0  0  0  0  0  0  0  0  0
    3.5934   -5.5872   -5.0893 C   0  0  0  0  0  0  0  0  0  0  0  0
    2.7140   -4.8303   -5.8493 C   0  0  0  0  0  0  0  0  0  0  0  0
    1.8664   -4.2099   -4.9921 N   0  0  0  0  0  0  0  0  0  0  0  0
    2.8541   -4.8504   -7.3054 C   0  0  0  0  0  0  0  0  0  0  0  0
    2.1024   -4.1984   -8.0067 O   0  0  0  0  0  0  0  0  0  0  0  0
    3.8253   -5.5991   -7.8586 N   0  0  0  0  0  0  0  0  0  0  0  0
    4.6931   -6.3474   -7.0768 C   0  0  0  0  0  0  0  0  0  0  0  0
    5.6676   -7.1082   -7.4971 N   0  3  0  0  0  0  0  0  0  0  0  0
    6.3605   -7.7380   -6.3707 C   0  0  2  0  0  0  0  0  0  0  0  0
    7.4199   -7.4824   -6.3501 H   0  0  0  0  0  0  0  0  0  0  0  0
    6.1379   -9.2632   -6.4180 C   0  0  0  0  0  0  0  0  0  0  0  0
    5.8005   -9.6465   -4.9561 C   0  0  0  0  0  0  0  0  0  0  0  0
    4.9330   -8.4544   -4.4821 C   0  0  0  0  0  0  0  0  0  0  0  0
    5.6106   -7.2021   -5.1293 C   0  0  2  0  0  0  0  0  0  0  0  0
    6.2694   -6.6700   -4.4431 H   0  0  0  0  0  0  0  0  0  0  0  0
    4.5724   -6.3330   -5.7113 N   0  0  0  0  0  0  0  0  0  0  0  0
    3.9690   -5.6251   -9.3163 C   0  0  0  0  0  0  0  0  0  0  0  0
    1.0039    1.9031    0.0027 H   0  0  0  0  0  0  0  0  0  0  0  0
   -0.5459    1.8868   -0.8726 H   0  0  0  0  0  0  0  0  0  0  0  0
   -0.5289    1.8773    0.9072 H   0  0  0  0  0  0  0  0  0  0  0  0
    0.5293   -0.3651    0.8851 H   0  0  0  0  0  0  0  0  0  0  0  0
   -1.0205   -0.3814    0.0098 H   0  0  0  0  0  0  0  0  0  0  0  0
    0.1910   -0.1364   -2.1398 H   0  0  0  0  0  0  0  0  0  0  0  0
    1.7408   -0.1202   -1.2645 H   0  0  0  0  0  0  0  0  0  0  0  0
    1.2661   -2.3884   -0.3821 H   0  0  0  0  0  0  0  0  0  0  0  0
   -0.2836   -2.4046   -1.2575 H   0  0  0  0  0  0  0  0  0  0  0  0
    0.9279   -2.1597   -3.4071 H   0  0  0  0  0  0  0  0  0  0  0  0
    2.4777   -2.1435   -2.5317 H   0  0  0  0  0  0  0  0  0  0  0  0
    2.0030   -4.4117   -1.6494 H   0  0  0  0  0  0  0  0  0  0  0  0
    0.4533   -4.4279   -2.5247 H   0  0  0  0  0  0  0  0  0  0  0  0
    5.3050   -9.5064   -7.0776 H   0  0  0  0  0  0  0  0  0  0  0  0
    7.0453   -9.7707   -6.7453 H   0  0  0  0  0  0  0  0  0  0  0  0
    5.2318  -10.5758   -4.9218 H   0  0  0  0  0  0  0  0  0  0  0  0
    6.7083   -9.7256   -4.3581 H   0  0  0  0  0  0  0  0  0  0  0  0
    3.9073   -8.5657   -4.8336 H   0  0  0  0  0  0  0  0  0  0  0  0
    4.9580   -8.3730   -3.3954 H   0  0  0  0  0  0  0  0  0  0  0  0
    3.2104   -4.9857   -9.7676 H   0  0  0  0  0  0  0  0  0  0  0  0
    4.9597   -5.2623   -9.5902 H   0  0  0  0  0  0  0  0  0  0  0  0
    3.8440   -6.6465   -9.6756 H   0  0  0  0  0  0  0  0  0  0  0  0
    5.9009   -7.2390   -8.4295 H   0  0  0  0  0  0  0  0  0  0  0  0
  1  2  1  0  0  0  0
  1 27  1  0  0  0  0
  1 28  1  0  0  0  0
  1 29  1  0  0  0  0
  2  3  1  0  0  0  0
  2 30  1  0  0  0  0
  2 31  1  0  0  0  0
  3  4  1  0  0  0  0
  3 32  1  0  0  0  0
  3 33  1  0  0  0  0
  4  5  1  0  0  0  0
  4 34  1  0  0  0  0
  4 35  1  0  0  0  0
  5  6  1  0  0  0  0
  5 36  1  0  0  0  0
  5 37  1  0  0  0  0
  6  7  1  0  0  0  0
  6 38  1  0  0  0  0
  6 39  1  0  0  0  0
  7 12  2  0  0  0  0
  7  8  1  0  0  0  0
  8  9  1  0  0  0  0
  8 10  1  0  0  0  0
 10 25  1  0  0  0  0
 10 11  2  0  0  0  0
 11 12  1  0  0  0  0
 11 13  1  0  0  0  0
 13 14  2  0  0  0  0
 13 15  1  0  0  0  0
 15 16  1  0  0  0  0
 15 26  1  0  0  0  0
 16 25  1  0  0  0  0
 16 17  2  0  0  0  0
 17 18  1  0  0  0  0
 17 49  1  0  0  0  0
 18 19  1  0  0  0  0
 18 23  1  0  0  0  0
 18 20  1  0  0  0  0
 20 21  1  0  0  0  0
 20 40  1  0  0  0  0
 20 41  1  0  0  0  0
 21 22  1  0  0  0  0
 21 42  1  0  0  0  0
 21 43  1  0  0  0  0
 22 23  1  0  0  0  0
 22 44  1  0  0  0  0
 22 45  1  0  0  0  0
 23 24  1  0  0  0  0
 23 25  1  0  0  0  0
 26 46  1  0  0  0  0
 26 47  1  0  0  0  0
 26 48  1  0  0  0  0
M  CHG  1  17   1
M  END
$$$$
CHEMBL18745
  -OEChem-07121202283D

 50 53  0     1  0  0  0  0  0999 V2000
   -0.0187    1.5258    0.0104 C   0  0  0  0  0  0  0  0  0  0  0  0
    0.0021   -0.0041    0.0020 C   0  0  0  0  0  0  0  0  0  0  0  0
    0.7421   -0.5109    1.2415 C   0  0  0  0  0  0  0  0  0  0  0  0
    0.7628   -2.0407    1.2331 C   0  0  0  0  0  0  0  0  0  0  0  0
    1.5028   -2.5476    2.4727 C   0  0  0  0  0  0  0  0  0  0  0  0
    1.5236   -4.0774    2.4642 C   0  0  0  0  0  0  0  0  0  0  0  0
    2.2524   -4.5766    3.6851 C   0  0  0  0  0  0  0  0  0  0  0  0
    1.6954   -4.8417    4.8392 N   0  3  0  0  0  0  0  0  0  0  0  0
    4.2197   -4.7130    3.0356 H   0  0  0  0  0  0  0  0  0  0  0  0
    2.6234   -5.2638    5.7034 C   0  0  0  0  0  0  0  0  0  0  0  0
    3.8393   -5.2597    5.0361 C   0  0  0  0  0  0  0  0  0  0  0  0
    3.5750   -4.8231    3.7520 N   0  0  0  0  0  0  0  0  0  0  0  0
    5.0048   -5.6664    5.7192 C   0  0  0  0  0  0  0  0  0  0  0  0
    6.0793   -5.6668    5.1458 O   0  0  0  0  0  0  0  0  0  0  0  0
    4.9271   -6.0531    7.0046 N   0  0  0  0  0  0  0  0  0  0  0  0
    3.7165   -6.0604    7.6816 C   0  0  0  0  0  0  0  0  0  0  0  0
    3.5041   -6.4094    8.9207 N   0  3  0  0  0  0  0  0  0  0  0  0
    2.0853   -6.2791    9.2626 C   0  0  2  0  0  0  0  0  0  0  0  0
    1.9284   -5.5951   10.0966 H   0  0  0  0  0  0  0  0  0  0  0  0
    1.4950   -7.6754    9.5454 C   0  0  0  0  0  0  0  0  0  0  0  0
    0.1454   -7.6817    8.7864 C   0  0  0  0  0  0  0  0  0  0  0  0
    0.4801   -6.9064    7.4883 C   0  0  0  0  0  0  0  0  0  0  0  0
    1.4366   -5.7613    7.9576 C   0  0  2  0  0  0  0  0  0  0  0  0
    0.9261   -4.8083    8.0970 H   0  0  0  0  0  0  0  0  0  0  0  0
    2.5761   -5.6660    7.0304 N   0  0  0  0  0  0  0  0  0  0  0  0
    6.1437   -6.4752    7.7031 C   0  0  0  0  0  0  0  0  0  0  0  0
    1.0039    1.9031    0.0027 H   0  0  0  0  0  0  0  0  0  0  0  0
   -0.5459    1.8868   -0.8726 H   0  0  0  0  0  0  0  0  0  0  0  0
   -0.5289    1.8773    0.9072 H   0  0  0  0  0  0  0  0  0  0  0  0
   -1.0205   -0.3814    0.0098 H   0  0  0  0  0  0  0  0  0  0  0  0
    0.5123   -0.3556   -0.8948 H   0  0  0  0  0  0  0  0  0  0  0  0
    1.7647   -0.1336    1.2338 H   0  0  0  0  0  0  0  0  0  0  0  0
    0.2319   -0.1594    2.1383 H   0  0  0  0  0  0  0  0  0  0  0  0
   -0.2598   -2.4180    1.2409 H   0  0  0  0  0  0  0  0  0  0  0  0
    1.2730   -2.3923    0.3363 H   0  0  0  0  0  0  0  0  0  0  0  0
    2.5254   -2.1703    2.4649 H   0  0  0  0  0  0  0  0  0  0  0  0
    0.9926   -2.1961    3.3695 H   0  0  0  0  0  0  0  0  0  0  0  0
    0.5010   -4.4547    2.4720 H   0  0  0  0  0  0  0  0  0  0  0  0
    2.0337   -4.4289    1.5674 H   0  0  0  0  0  0  0  0  0  0  0  0
    2.1535   -8.4530    9.1583 H   0  0  0  0  0  0  0  0  0  0  0  0
    1.3316   -7.8106   10.6146 H   0  0  0  0  0  0  0  0  0  0  0  0
   -0.1648   -8.7015    8.5583 H   0  0  0  0  0  0  0  0  0  0  0  0
   -0.6226   -7.1623    9.3595 H   0  0  0  0  0  0  0  0  0  0  0  0
    0.9787   -7.5594    6.7720 H   0  0  0  0  0  0  0  0  0  0  0  0
   -0.4250   -6.4824    7.0533 H   0  0  0  0  0  0  0  0  0  0  0  0
    6.9942   -6.4073    7.0247 H   0  0  0  0  0  0  0  0  0  0  0  0
    6.3124   -5.8271    8.5631 H   0  0  0  0  0  0  0  0  0  0  0  0
    6.0299   -7.5052    8.0411 H   0  0  0  0  0  0  0  0  0  0  0  0
    4.1923   -6.7138    9.5328 H   0  0  0  0  0  0  0  0  0  0  0  0
    0.7508   -4.7459    5.0377 H   0  0  0  0  0  0  0  0  0  0  0  0
  1  2  1  0  0  0  0
  1 27  1  0  0  0  0
  1 28  1  0  0  0  0
  1 29  1  0  0  0  0
  2  3  1  0  0  0  0
  2 30  1  0  0  0  0
  2 31  1  0  0  0  0
  3  4  1  0  0  0  0
  3 32  1  0  0  0  0
  3 33  1  0  0  0  0
  4  5  1  0  0  0  0
  4 34  1  0  0  0  0
  4 35  1  0  0  0  0
  5  6  1  0  0  0  0
  5 36  1  0  0  0  0
  5 37  1  0  0  0  0
  6 38  1  0  0  0  0
  6 39  1  0  0  0  0
  6  7  1  0  0  0  0
  7  8  2  0  0  0  0
  7 12  1  0  0  0  0
  8 10  1  0  0  0  0
  8 50  1  0  0  0  0
  9 12  1  0  0  0  0
 10 25  1  0  0  0  0
 10 11  2  0  0  0  0
 11 13  1  0  0  0  0
 11 12  1  0  0  0  0
 13 14  2  0  0  0  0
 13 15  1  0  0  0  0
 15 16  1  0  0  0  0
 15 26  1  0  0  0  0
 16 25  1  0  0  0  0
 16 17  2  0  0  0  0
 17 18  1  0  0  0  0
 17 49  1  0  0  0  0
 18 19  1  0  0  0  0
 18 23  1  0  0  0  0
 18 20  1  0  0  0  0
 20 21  1  0  0  0  0
 20 40  1  0  0  0  0
 20 41  1  0  0  0  0
 21 22  1  0  0  0  0
 21 42  1  0  0  0  0
 21 43  1  0  0  0  0
 22 23  1  0  0  0  0
 22 44  1  0  0  0  0
 22 45  1  0  0  0  0
 23 24  1  0  0  0  0
 23 25  1  0  0  0  0
 26 46  1  0  0  0  0
 26 47  1  0  0  0  0
 26 48  1  0  0  0  0
M  CHG  2   8   1  17   1
M  END
$$$$
CHEMBL26396
  -OEChem-07121202283D

 60 65  0     1  0  0  0  0  0999 V2000
   -0.0187    1.5258    0.0104 C   0  0  0  0  0  0  0  0  0  0  0  0
    0.0021   -0.0041    0.0020 C   0  0  0  0  0  0  0  0  0  0  0  0
    0.7106   -0.4894    1.1889 N   0  0  0  0  0  0  0  0  0  0  0  0
    2.0392   -0.6855    1.1291 C   0  0  0  0  0  0  0  0  0  0  0  0
    2.6430   -0.4605    0.0952 O   0  0  0  0  0  0  0  0  0  0  0  0
    2.7329   -1.1513    2.2643 C   0  0  0  0  0  0  0  0  0  0  0  0
    2.0299   -1.4016    3.4376 C   0  0  0  0  0  0  0  0  0  0  0  0
    2.9025   -1.8268    4.3496 N   0  0  0  0  0  0  0  0  0  0  0  0
    4.1167   -1.8622    3.8272 C   0  0  0  0  0  0  0  0  0  0  0  0
    4.0580   -1.4489    2.5276 N   0  0  0  0  0  0  0  0  0  0  0  0
    5.1807   -1.3416    1.5926 C   0  0  0  0  0  0  0  0  0  0  0  0
    5.7840    0.0360    1.6881 C   0  0  0  0  0  0  0  0  0  0  0  0
    5.3092    1.0547    0.8828 C   0  0  0  0  0  0  0  0  0  0  0  0
    5.8610    2.3183    0.9681 C   0  0  0  0  0  0  0  0  0  0  0  0
    6.8920    2.5648    1.8630 C   0  0  0  0  0  0  0  0  0  0  0  0
    7.3663    1.5411    2.6702 C   0  0  0  0  0  0  0  0  0  0  0  0
    6.8077    0.2805    2.5848 C   0  0  0  0  0  0  0  0  0  0  0  0
    7.4367    3.8069    1.9484 O   0  0  0  0  0  0  0  0  0  0  0  0
    5.3046   -2.2695    4.5155 C   0  0  0  0  0  0  0  0  0  0  0  0
    6.2784   -2.6035    5.0798 C   0  0  0  0  0  0  0  0  0  0  0  0
    7.4663   -3.0108    5.7680 C   0  0  0  0  0  0  0  0  0  0  0  0
    7.3992   -3.4208    7.1031 C   0  0  0  0  0  0  0  0  0  0  0  0
    8.5474   -3.8121    7.7589 C   0  0  0  0  0  0  0  0  0  0  0  0
    9.7640   -3.7991    7.0993 C   0  0  0  0  0  0  0  0  0  0  0  0
    9.8385   -3.3945    5.7778 C   0  0  0  0  0  0  0  0  0  0  0  0
    8.6982   -3.0059    5.1067 C   0  0  0  0  0  0  0  0  0  0  0  0
    0.6582   -1.1883    3.4663 N   0  0  0  0  0  0  0  0  0  0  0  0
   -0.0013   -0.7321    2.3539 C   0  0  0  0  0  0  0  0  0  0  0  0
   -1.2834   -0.5826    2.5442 N   0  3  0  0  0  0  0  0  0  0  0  0
   -1.6519   -0.9418    3.9161 C   0  0  1  0  0  0  0  0  0  0  0  0
   -2.3871   -1.7461    3.9434 H   0  0  0  0  0  0  0  0  0  0  0  0
   -0.3118   -1.3708    4.5584 C   0  0  2  0  0  0  0  0  0  0  0  0
   -0.3287   -2.3955    4.9297 H   0  0  0  0  0  0  0  0  0  0  0  0
   -0.0255   -0.3414    5.6695 C   0  0  0  0  0  0  0  0  0  0  0  0
   -0.8322    0.9116    5.2487 C   0  0  0  0  0  0  0  0  0  0  0  0
   -2.1463    0.3150    4.6604 C   0  0  0  0  0  0  0  0  0  0  0  0
    1.0039    1.9031    0.0027 H   0  0  0  0  0  0  0  0  0  0  0  0
   -0.5459    1.8868   -0.8726 H   0  0  0  0  0  0  0  0  0  0  0  0
   -0.5289    1.8773    0.9072 H   0  0  0  0  0  0  0  0  0  0  0  0
   -1.0205   -0.3814    0.0098 H   0  0  0  0  0  0  0  0  0  0  0  0
    0.5123   -0.3556   -0.8948 H   0  0  0  0  0  0  0  0  0  0  0  0
    5.9352   -2.0870    1.8439 H   0  0  0  0  0  0  0  0  0  0  0  0
    4.8250   -1.5129    0.5766 H   0  0  0  0  0  0  0  0  0  0  0  0
    4.5066    0.8623    0.1863 H   0  0  0  0  0  0  0  0  0  0  0  0
    5.4902    3.1136    0.3384 H   0  0  0  0  0  0  0  0  0  0  0  0
    8.1689    1.7304    3.3676 H   0  0  0  0  0  0  0  0  0  0  0  0
    7.1736   -0.5157    3.2161 H   0  0  0  0  0  0  0  0  0  0  0  0
    7.0040    4.3826    2.5938 H   0  0  0  0  0  0  0  0  0  0  0  0
    6.4507   -3.4308    7.6194 H   0  0  0  0  0  0  0  0  0  0  0  0
    8.4972   -4.1291    8.7902 H   0  0  0  0  0  0  0  0  0  0  0  0
   10.6599   -4.1060    7.6185 H   0  0  0  0  0  0  0  0  0  0  0  0
   10.7915   -3.3871    5.2698 H   0  0  0  0  0  0  0  0  0  0  0  0
    8.7573   -2.6944    4.0743 H   0  0  0  0  0  0  0  0  0  0  0  0
   -0.3745   -0.7135    6.6328 H   0  0  0  0  0  0  0  0  0  0  0  0
    1.0394   -0.1125    5.7117 H   0  0  0  0  0  0  0  0  0  0  0  0
   -1.0535    1.5370    6.1136 H   0  0  0  0  0  0  0  0  0  0  0  0
   -0.2961    1.4786    4.4877 H   0  0  0  0  0  0  0  0  0  0  0  0
   -2.6276    1.0044    3.9667 H   0  0  0  0  0  0  0  0  0  0  0  0
   -2.8314    0.0388    5.4619 H   0  0  0  0  0  0  0  0  0  0  0  0
   -1.9081   -0.2749    1.8689 H   0  0  0  0  0  0  0  0  0  0  0  0
  1  2  1  0  0  0  0
  1 37  1  0  0  0  0
  1 38  1  0  0  0  0
  1 39  1  0  0  0  0
  2  3  1  0  0  0  0
  2 40  1  0  0  0  0
  2 41  1  0  0  0  0
  3 28  1  0  0  0  0
  3  4  1  0  0  0  0
  4  5  2  0  0  0  0
  4  6  1  0  0  0  0
  6 10  1  0  0  0  0
  6  7  2  0  0  0  0
  7  8  1  0  0  0  0
  7 27  1  0  0  0  0
  8  9  2  0  0  0  0
  9 10  1  0  0  0  0
  9 19  1  0  0  0  0
 10 11  1  0  0  0  0
 11 12  1  0  0  0  0
 11 42  1  0  0  0  0
 11 43  1  0  0  0  0
 12 17  2  0  0  0  0
 12 13  1  0  0  0  0
 13 14  2  0  0  0  0
 13 44  1  0  0  0  0
 14 15  1  0  0  0  0
 14 45  1  0  0  0  0
 15 16  2  0  0  0  0
 15 18  1  0  0  0  0
 16 17  1  0  0  0  0
 16 46  1  0  0  0  0
 17 47  1  0  0  0  0
 18 48  1  0  0  0  0
 19 20  3  0  0  0  0
 20 21  1  0  0  0  0
 21 26  2  0  0  0  0
 21 22  1  0  0  0  0
 22 23  2  0  0  0  0
 22 49  1  0  0  0  0
 23 24  1  0  0  0  0
 23 50  1  0  0  0  0
 24 25  2  0  0  0  0
 24 51  1  0  0  0  0
 25 26  1  0  0  0  0
 25 52  1  0  0  0  0
 26 53  1  0  0  0  0
 27 32  1  0  0  0  0
 27 28  1  0  0  0  0
 28 29  2  0  0  0  0
 29 30  1  0  0  0  0
 29 60  1  0  0  0  0
 30 31  1  0  0  0  0
 30 36  1  0  0  0  0
 30 32  1  0  0  0  0
 32 33  1  0  0  0  0
 32 34  1  0  0  0  0
 34 35  1  0  0  0  0
 34 54  1  0  0  0  0
 34 55  1  0  0  0  0
 35 36  1  0  0  0  0
 35 56  1  0  0  0  0
 35 57  1  0  0  0  0
 36 58  1  0  0  0  0
 36 59  1  0  0  0  0
M  CHG  1  29   1
M  END
$$$$
CHEMBL1094830
  -OEChem-07121202283D

 64 67  0     1  0  0  0  0  0999 V2000
    0.5308    2.0195   -0.2514 C   0  0  0  0  0  0  0  0  0  0  0  0
   -0.0430    0.6017   -0.2930 C   0  0  0  0  0  0  0  0  0  0  0  0
    0.6409   -0.1852   -1.3811 C   0  0  0  0  0  0  0  0  0  0  0  0
    0.2202   -0.2655   -2.7258 C   0  0  0  0  0  0  0  0  0  0  0  0
    1.1365   -1.0980   -3.3915 C   0  0  0  0  0  0  0  0  0  0  0  0
    0.9448   -1.3463   -4.7579 C   0  0  0  0  0  0  0  0  0  0  0  0
   -0.0931   -0.7858   -5.3672 N   0  0  0  0  0  0  0  0  0  0  0  0
   -0.9389   -0.0042   -4.7056 C   0  0  0  0  0  0  0  0  0  0  0  0
   -0.7995    0.2583   -3.4197 N   0  0  0  0  0  0  0  0  0  0  0  0
   -2.0058    0.5562   -5.3902 N   0  0  0  0  0  0  0  0  0  0  0  0
   -2.9606    1.4135   -4.6834 C   0  0  0  0  0  0  0  0  0  0  0  0
   -2.1787    0.2912   -6.8206 C   0  0  2  0  0  0  0  0  0  0  0  0
   -2.2477    1.6198   -7.6079 C   0  0  0  0  0  0  0  0  0  0  0  0
   -3.3376    1.3358   -8.6719 C   0  0  0  0  0  0  0  0  0  0  0  0
   -4.3255    0.5079   -7.9339 N   0  3  0  0  0  0  0  0  0  0  0  0
   -3.5314   -0.3988   -7.0766 C   0  0  0  0  0  0  0  0  0  0  0  0
    1.8209   -2.1597   -5.4584 N   0  0  0  0  0  0  0  0  0  0  0  0
    1.5449   -2.5062   -6.7778 C   0  0  0  0  0  0  0  0  0  0  0  0
    0.2483   -2.3824   -7.2662 C   0  0  0  0  0  0  0  0  0  0  0  0
   -0.0120   -2.7303   -8.5793 C   0  0  0  0  0  0  0  0  0  0  0  0
    1.0373   -3.1923   -9.3629 C   0  0  0  0  0  0  0  0  0  0  0  0
    2.2997   -3.2900   -8.8130 C   0  0  0  0  0  0  0  0  0  0  0  0
    2.5198   -2.9457   -7.5583 N   0  0  0  0  0  0  0  0  0  0  0  0
   -1.4031   -2.6113   -9.1467 C   0  0  0  0  0  0  0  0  0  0  0  0
    2.0627   -1.4902   -2.4608 N   0  0  0  0  0  0  0  0  0  0  0  0
    1.7218   -0.8997   -1.2368 N   0  0  0  0  0  0  0  0  0  0  0  0
    3.2105   -2.3675   -2.7042 C   0  0  0  0  0  0  0  0  0  0  0  0
    4.3799   -1.5401   -3.2415 C   0  0  0  0  0  0  0  0  0  0  0  0
    5.4995   -2.3959   -3.4788 O   0  0  0  0  0  0  0  0  0  0  0  0
    6.6516   -1.7188   -3.9850 C   0  0  0  0  0  0  0  0  0  0  0  0
    7.7821   -2.7271   -4.2004 C   0  0  0  0  0  0  0  0  0  0  0  0
    1.6007    1.9726   -0.0484 H   0  0  0  0  0  0  0  0  0  0  0  0
    0.3643    2.5071   -1.2119 H   0  0  0  0  0  0  0  0  0  0  0  0
    0.0362    2.5887    0.5357 H   0  0  0  0  0  0  0  0  0  0  0  0
    0.1235    0.1141    0.6675 H   0  0  0  0  0  0  0  0  0  0  0  0
   -1.1129    0.6486   -0.4960 H   0  0  0  0  0  0  0  0  0  0  0  0
   -2.6229    2.4488   -4.7299 H   0  0  0  0  0  0  0  0  0  0  0  0
   -3.9408    1.3296   -5.1526 H   0  0  0  0  0  0  0  0  0  0  0  0
   -3.0284    1.1000   -3.6416 H   0  0  0  0  0  0  0  0  0  0  0  0
   -1.3620   -0.3281   -7.1914 H   0  0  0  0  0  0  0  0  0  0  0  0
   -2.5496    2.4394   -6.9558 H   0  0  0  0  0  0  0  0  0  0  0  0
   -1.2913    1.8363   -8.0838 H   0  0  0  0  0  0  0  0  0  0  0  0
   -3.7932    2.2653   -9.0135 H   0  0  0  0  0  0  0  0  0  0  0  0
   -2.9201    0.7797   -9.5113 H   0  0  0  0  0  0  0  0  0  0  0  0
   -4.9164    1.0957   -7.3652 H   0  0  0  0  0  0  0  0  0  0  0  0
   -3.3730   -1.3486   -7.5873 H   0  0  0  0  0  0  0  0  0  0  0  0
   -4.0488   -0.5640   -6.1315 H   0  0  0  0  0  0  0  0  0  0  0  0
    2.6266   -2.4875   -5.0292 H   0  0  0  0  0  0  0  0  0  0  0  0
   -0.5445   -2.0198   -6.6286 H   0  0  0  0  0  0  0  0  0  0  0  0
    0.8673   -3.4725  -10.3920 H   0  0  0  0  0  0  0  0  0  0  0  0
    3.1187   -3.6487   -9.4187 H   0  0  0  0  0  0  0  0  0  0  0  0
   -1.5355   -1.6195   -9.5790 H   0  0  0  0  0  0  0  0  0  0  0  0
   -1.5461   -3.3665   -9.9196 H   0  0  0  0  0  0  0  0  0  0  0  0
   -2.1337   -2.7619   -8.3520 H   0  0  0  0  0  0  0  0  0  0  0  0
    3.5042   -2.8487   -1.7713 H   0  0  0  0  0  0  0  0  0  0  0  0
    2.9376   -3.1285   -3.4353 H   0  0  0  0  0  0  0  0  0  0  0  0
    4.0862   -1.0590   -4.1744 H   0  0  0  0  0  0  0  0  0  0  0  0
    4.6529   -0.7792   -2.5104 H   0  0  0  0  0  0  0  0  0  0  0  0
    6.4050   -1.2414   -4.9333 H   0  0  0  0  0  0  0  0  0  0  0  0
    6.9717   -0.9616   -3.2693 H   0  0  0  0  0  0  0  0  0  0  0  0
    8.0286   -3.2046   -3.2521 H   0  0  0  0  0  0  0  0  0  0  0  0
    7.4620   -3.4844   -4.9161 H   0  0  0  0  0  0  0  0  0  0  0  0
    8.6609   -2.2106   -4.5865 H   0  0  0  0  0  0  0  0  0  0  0  0
   -4.8845   -0.0268   -8.5818 H   0  0  0  0  0  0  0  0  0  0  0  0
  1  2  1  0  0  0  0
  1 32  1  0  0  0  0
  1 33  1  0  0  0  0
  1 34  1  0  0  0  0
  2  3  1  0  0  0  0
  2 35  1  0  0  0  0
  2 36  1  0  0  0  0
  3 26  2  0  0  0  0
  3  4  1  0  0  0  0
  4  9  2  0  0  0  0
  4  5  1  0  0  0  0
  5  6  2  0  0  0  0
  5 25  1  0  0  0  0
  6  7  1  0  0  0  0
  6 17  1  0  0  0  0
  7  8  2  0  0  0  0
  8  9  1  0  0  0  0
  8 10  1  0  0  0  0
 10 11  1  0  0  0  0
 10 12  1  0  0  0  0
 11 37  1  0  0  0  0
 11 38  1  0  0  0  0
 11 39  1  0  0  0  0
 12 16  1  0  0  0  0
 12 13  1  0  0  0  0
 12 40  1  0  0  0  0
 13 14  1  0  0  0  0
 13 41  1  0  0  0  0
 13 42  1  0  0  0  0
 14 15  1  0  0  0  0
 14 43  1  0  0  0  0
 14 44  1  0  0  0  0
 15 16  1  0  0  0  0
 15 45  1  0  0  0  0
 15 64  1  0  0  0  0
 16 46  1  0  0  0  0
 16 47  1  0  0  0  0
 17 18  1  0  0  0  0
 17 48  1  0  0  0  0
 18 23  2  0  0  0  0
 18 19  1  0  0  0  0
 19 20  2  0  0  0  0
 19 49  1  0  0  0  0
 20 21  1  0  0  0  0
 20 24  1  0  0  0  0
 21 22  2  0  0  0  0
 21 50  1  0  0  0  0
 22 23  1  0  0  0  0
 22 51  1  0  0  0  0
 24 52  1  0  0  0  0
 24 53  1  0  0  0  0
 24 54  1  0  0  0  0
 25 26  1  0  0  0  0
 25 27  1  0  0  0  0
 27 28  1  0  0  0  0
 27 55  1  0  0  0  0
 27 56  1  0  0  0  0
 28 29  1  0  0  0  0
 28 57  1  0  0  0  0
 28 58  1  0  0  0  0
 29 30  1  0  0  0  0
 30 31  1  0  0  0  0
 30 59  1  0  0  0  0
 30 60  1  0  0  0  0
 31 61  1  0  0  0  0
 31 62  1  0  0  0  0
 31 63  1  0  0  0  0
M  CHG  1  15   1
M  END
$$$$
CHEMBL1094830
  -OEChem-07121202283D

 65 68  0     1  0  0  0  0  0999 V2000
    0.5509    2.0562   -0.2295 C   0  0  0  0  0  0  0  0  0  0  0  0
   -0.1001    0.6748   -0.3237 C   0  0  0  0  0  0  0  0  0  0  0  0
    0.5868   -0.1322   -1.3952 C   0  0  0  0  0  0  0  0  0  0  0  0
    0.2240   -0.1657   -2.7585 C   0  0  0  0  0  0  0  0  0  0  0  0
    1.1209   -1.0386   -3.3986 C   0  0  0  0  0  0  0  0  0  0  0  0
    0.9779   -1.2527   -4.7767 C   0  0  0  0  0  0  0  0  0  0  0  0
    0.0024   -0.6233   -5.4208 N   0  0  0  0  0  0  0  0  0  0  0  0
   -0.8269    0.1947   -4.7827 C   0  0  0  0  0  0  0  0  0  0  0  0
   -0.7315    0.4274   -3.4871 N   0  0  0  0  0  0  0  0  0  0  0  0
   -1.8279    0.8269   -5.5032 N   0  0  0  0  0  0  0  0  0  0  0  0
   -2.7320    1.7649   -4.8332 C   0  0  0  0  0  0  0  0  0  0  0  0
   -1.9818    0.5572   -6.9350 C   0  0  2  0  0  0  0  0  0  0  0  0
   -1.9431    1.8783   -7.7370 C   0  0  0  0  0  0  0  0  0  0  0  0
   -3.0222    1.6541   -8.8260 C   0  0  0  0  0  0  0  0  0  0  0  0
   -4.0809    0.9015   -8.1057 N   0  3  0  0  0  0  0  0  0  0  0  0
   -3.3702   -0.0453   -7.2191 C   0  0  0  0  0  0  0  0  0  0  0  0
    1.8374   -2.1035   -5.4529 N   0  0  0  0  0  0  0  0  0  0  0  0
    1.6006   -2.4144   -6.7887 C   0  0  0  0  0  0  0  0  0  0  0  0
    0.3162   -2.2896   -7.3082 C   0  0  0  0  0  0  0  0  0  0  0  0
    0.0949   -2.6020   -8.6374 C   0  0  0  0  0  0  0  0  0  0  0  0
    1.1698   -3.0304   -9.4052 C   0  0  0  0  0  0  0  0  0  0  0  0
    2.4180   -3.1313   -8.8243 C   0  0  0  0  0  0  0  0  0  0  0  0
    2.6007   -2.8213   -7.5548 N   0  3  0  0  0  0  0  0  0  0  0  0
   -1.2816   -2.4806   -9.2386 C   0  0  0  0  0  0  0  0  0  0  0  0
    1.9800   -1.4988   -2.4353 N   0  0  0  0  0  0  0  0  0  0  0  0
    1.6177   -0.9100   -1.2165 N   0  0  0  0  0  0  0  0  0  0  0  0
    3.0859   -2.4367   -2.6439 C   0  0  0  0  0  0  0  0  0  0  0  0
    4.3234   -1.6695   -3.1139 C   0  0  0  0  0  0  0  0  0  0  0  0
    5.4022   -2.5843   -3.3175 O   0  0  0  0  0  0  0  0  0  0  0  0
    6.6125   -1.9666   -3.7598 C   0  0  0  0  0  0  0  0  0  0  0  0
    7.6925   -3.0346   -3.9438 C   0  0  0  0  0  0  0  0  0  0  0  0
    1.6060    1.9444    0.0201 H   0  0  0  0  0  0  0  0  0  0  0  0
    0.4564    2.5685   -1.1869 H   0  0  0  0  0  0  0  0  0  0  0  0
    0.0541    2.6399    0.5455 H   0  0  0  0  0  0  0  0  0  0  0  0
   -0.0055    0.1625    0.6337 H   0  0  0  0  0  0  0  0  0  0  0  0
   -1.1552    0.7866   -0.5733 H   0  0  0  0  0  0  0  0  0  0  0  0
   -2.3137    2.7703   -4.8817 H   0  0  0  0  0  0  0  0  0  0  0  0
   -3.7026    1.7509   -5.3290 H   0  0  0  0  0  0  0  0  0  0  0  0
   -2.8524    1.4714   -3.7904 H   0  0  0  0  0  0  0  0  0  0  0  0
   -1.1986   -0.1187   -7.2783 H   0  0  0  0  0  0  0  0  0  0  0  0
   -2.2066    2.7235   -7.1011 H   0  0  0  0  0  0  0  0  0  0  0  0
   -0.9628    2.0259   -8.1900 H   0  0  0  0  0  0  0  0  0  0  0  0
   -3.4068    2.6075   -9.1885 H   0  0  0  0  0  0  0  0  0  0  0  0
   -2.6213    1.0620   -9.6487 H   0  0  0  0  0  0  0  0  0  0  0  0
   -4.6458    1.5335   -7.5584 H   0  0  0  0  0  0  0  0  0  0  0  0
   -3.2620   -1.0094   -7.7160 H   0  0  0  0  0  0  0  0  0  0  0  0
   -3.9210   -0.1651   -6.2861 H   0  0  0  0  0  0  0  0  0  0  0  0
    2.6042   -2.4824   -4.9953 H   0  0  0  0  0  0  0  0  0  0  0  0
   -0.4972   -1.9536   -6.6822 H   0  0  0  0  0  0  0  0  0  0  0  0
    1.0305   -3.2824  -10.4461 H   0  0  0  0  0  0  0  0  0  0  0  0
    3.2568   -3.4641   -9.4177 H   0  0  0  0  0  0  0  0  0  0  0  0
   -1.4132   -1.4780   -9.6456 H   0  0  0  0  0  0  0  0  0  0  0  0
   -1.3957   -3.2145  -10.0364 H   0  0  0  0  0  0  0  0  0  0  0  0
   -2.0316   -2.6614   -8.4686 H   0  0  0  0  0  0  0  0  0  0  0  0
    3.3096   -2.9487   -1.7081 H   0  0  0  0  0  0  0  0  0  0  0  0
    2.8035   -3.1690   -3.4003 H   0  0  0  0  0  0  0  0  0  0  0  0
    4.0998   -1.1574   -4.0498 H   0  0  0  0  0  0  0  0  0  0  0  0
    4.6059   -0.9372   -2.3576 H   0  0  0  0  0  0  0  0  0  0  0  0
    6.4363   -1.4607   -4.7091 H   0  0  0  0  0  0  0  0  0  0  0  0
    6.9424   -1.2404   -3.0169 H   0  0  0  0  0  0  0  0  0  0  0  0
    7.8686   -3.5405   -2.9945 H   0  0  0  0  0  0  0  0  0  0  0  0
    7.3625   -3.7607   -4.6867 H   0  0  0  0  0  0  0  0  0  0  0  0
    8.6156   -2.5634   -4.2812 H   0  0  0  0  0  0  0  0  0  0  0  0
   -4.6574    0.3972   -8.7625 H   0  0  0  0  0  0  0  0  0  0  0  0
    3.4889   -2.8972   -7.1724 H   0  0  0  0  0  0  0  0  0  0  0  0
  1  2  1  0  0  0  0
  1 32  1  0  0  0  0
  1 33  1  0  0  0  0
  1 34  1  0  0  0  0
  2  3  1  0  0  0  0
  2 35  1  0  0  0  0
  2 36  1  0  0  0  0
  3 26  2  0  0  0  0
  3  4  1  0  0  0  0
  4  9  2  0  0  0  0
  4  5  1  0  0  0  0
  5  6  2  0  0  0  0
  5 25  1  0  0  0  0
  6  7  1  0  0  0  0
  6 17  1  0  0  0  0
  7  8  2  0  0  0  0
  8  9  1  0  0  0  0
  8 10  1  0  0  0  0
 10 11  1  0  0  0  0
 10 12  1  0  0  0  0
 11 37  1  0  0  0  0
 11 38  1  0  0  0  0
 11 39  1  0  0  0  0
 12 16  1  0  0  0  0
 12 13  1  0  0  0  0
 12 40  1  0  0  0  0
 13 14  1  0  0  0  0
 13 41  1  0  0  0  0
 13 42  1  0  0  0  0
 14 15  1  0  0  0  0
 14 43  1  0  0  0  0
 14 44  1  0  0  0  0
 15 16  1  0  0  0  0
 15 45  1  0  0  0  0
 15 64  1  0  0  0  0
 16 46  1  0  0  0  0
 16 47  1  0  0  0  0
 17 18  1  0  0  0  0
 17 48  1  0  0  0  0
 18 23  2  0  0  0  0
 18 19  1  0  0  0  0
 19 20  2  0  0  0  0
 19 49  1  0  0  0  0
 20 21  1  0  0  0  0
 20 24  1  0  0  0  0
 21 22  2  0  0  0  0
 21 50  1  0  0  0  0
 22 23  1  0  0  0  0
 22 51  1  0  0  0  0
 23 65  1  0  0  0  0
 24 52  1  0  0  0  0
 24 53  1  0  0  0  0
 24 54  1  0  0  0  0
 25 26  1  0  0  0  0
 25 27  1  0  0  0  0
 27 28  1  0  0  0  0
 27 55  1  0  0  0  0
 27 56  1  0  0  0  0
 28 29  1  0  0  0  0
 28 57  1  0  0  0  0
 28 58  1  0  0  0  0
 29 30  1  0  0  0  0
 30 31  1  0  0  0  0
 30 59  1  0  0  0  0
 30 60  1  0  0  0  0
 31 61  1  0  0  0  0
 31 62  1  0  0  0  0
 31 63  1  0  0  0  0
M  CHG  2  15   1  23   1
M  END
$$$$
CHEMBL1094830
  -OEChem-07121202283D

 64 67  0     1  0  0  0  0  0999 V2000
    0.3717    2.2312   -0.3205 C   0  0  0  0  0  0  0  0  0  0  0  0
   -0.0757    0.7700   -0.3955 C   0  0  0  0  0  0  0  0  0  0  0  0
    0.6852    0.0672   -1.4901 C   0  0  0  0  0  0  0  0  0  0  0  0
    0.2867   -0.0228   -2.8409 C   0  0  0  0  0  0  0  0  0  0  0  0
    1.2790   -0.7590   -3.5113 C   0  0  0  0  0  0  0  0  0  0  0  0
    1.1235   -0.9960   -4.8843 C   0  0  0  0  0  0  0  0  0  0  0  0
    0.0468   -0.5161   -5.4951 N   0  0  0  0  0  0  0  0  0  0  0  0
   -0.8706    0.1757   -4.8290 C   0  0  0  0  0  0  0  0  0  0  0  0
   -0.7676    0.4239   -3.5368 N   0  0  0  0  0  0  0  0  0  0  0  0
   -1.9753    0.6545   -5.5155 N   0  0  0  0  0  0  0  0  0  0  0  0
   -3.0109    1.4070   -4.8030 C   0  0  0  0  0  0  0  0  0  0  0  0
   -2.1075    0.4082   -6.9535 C   0  0  1  0  0  0  0  0  0  0  0  0
   -3.5054   -0.1695   -7.2727 C   0  0  0  0  0  0  0  0  0  0  0  0
   -4.3059    1.0825   -7.7110 C   0  0  0  0  0  0  0  0  0  0  0  0
   -3.3065    1.8760   -8.4710 N   0  3  0  0  0  0  0  0  0  0  0  0
   -2.0331    1.7347   -7.7321 C   0  0  0  0  0  0  0  0  0  0  0  0
    2.0743   -1.7160   -5.5895 N   0  0  0  0  0  0  0  0  0  0  0  0
    1.8420   -2.0610   -6.9177 C   0  0  0  0  0  0  0  0  0  0  0  0
    0.5435   -2.0469   -7.4166 C   0  0  0  0  0  0  0  0  0  0  0  0
    0.3270   -2.3920   -8.7384 C   0  0  0  0  0  0  0  0  0  0  0  0
    1.4206   -2.7410   -9.5199 C   0  0  0  0  0  0  0  0  0  0  0  0
    2.6821   -2.7334   -8.9593 C   0  0  0  0  0  0  0  0  0  0  0  0
    2.8594   -2.3945   -7.6965 N   0  0  0  0  0  0  0  0  0  0  0  0
   -1.0644   -2.3898   -9.3173 C   0  0  0  0  0  0  0  0  0  0  0  0
    2.2264   -1.0874   -2.5773 N   0  0  0  0  0  0  0  0  0  0  0  0
    1.8228   -0.5531   -1.3464 N   0  0  0  0  0  0  0  0  0  0  0  0
    3.4487   -1.8565   -2.8235 C   0  0  0  0  0  0  0  0  0  0  0  0
    4.5396   -0.9242   -3.3542 C   0  0  0  0  0  0  0  0  0  0  0  0
    5.7319   -1.6744   -3.5944 O   0  0  0  0  0  0  0  0  0  0  0  0
    6.8190   -0.8935   -4.0949 C   0  0  0  0  0  0  0  0  0  0  0  0
    8.0359   -1.7947   -4.3139 C   0  0  0  0  0  0  0  0  0  0  0  0
    1.4395    2.2736   -0.1057 H   0  0  0  0  0  0  0  0  0  0  0  0
    0.1730    2.7214   -1.2735 H   0  0  0  0  0  0  0  0  0  0  0  0
   -0.1786    2.7395    0.4713 H   0  0  0  0  0  0  0  0  0  0  0  0
    0.1230    0.2798    0.5576 H   0  0  0  0  0  0  0  0  0  0  0  0
   -1.1435    0.7276   -0.6102 H   0  0  0  0  0  0  0  0  0  0  0  0
   -2.7665    2.4690   -4.8223 H   0  0  0  0  0  0  0  0  0  0  0  0
   -3.9743    1.2469   -5.2872 H   0  0  0  0  0  0  0  0  0  0  0  0
   -3.0624    1.0647   -3.7694 H   0  0  0  0  0  0  0  0  0  0  0  0
   -1.3280   -0.2740   -7.2931 H   0  0  0  0  0  0  0  0  0  0  0  0
   -3.4472   -0.8939   -8.0851 H   0  0  0  0  0  0  0  0  0  0  0  0
   -3.9489   -0.6194   -6.3844 H   0  0  0  0  0  0  0  0  0  0  0  0
   -5.1411    0.8003   -8.3520 H   0  0  0  0  0  0  0  0  0  0  0  0
   -4.6576    1.6381   -6.8416 H   0  0  0  0  0  0  0  0  0  0  0  0
   -3.2089    1.5090   -9.4058 H   0  0  0  0  0  0  0  0  0  0  0  0
   -1.9123    2.5664   -7.0380 H   0  0  0  0  0  0  0  0  0  0  0  0
   -1.1984    1.7079   -8.4325 H   0  0  0  0  0  0  0  0  0  0  0  0
    2.9018   -1.9796   -5.1576 H   0  0  0  0  0  0  0  0  0  0  0  0
   -0.2843   -1.7705   -6.7804 H   0  0  0  0  0  0  0  0  0  0  0  0
    1.2855   -3.0158  -10.5556 H   0  0  0  0  0  0  0  0  0  0  0  0
    3.5354   -3.0041   -9.5634 H   0  0  0  0  0  0  0  0  0  0  0  0
   -1.2836   -1.4061   -9.7326 H   0  0  0  0  0  0  0  0  0  0  0  0
   -1.1313   -3.1400  -10.1053 H   0  0  0  0  0  0  0  0  0  0  0  0
   -1.7847   -2.6217   -8.5328 H   0  0  0  0  0  0  0  0  0  0  0  0
    3.7834   -2.3145   -1.8927 H   0  0  0  0  0  0  0  0  0  0  0  0
    3.2463   -2.6348   -3.5592 H   0  0  0  0  0  0  0  0  0  0  0  0
    4.2049   -0.4661   -4.2850 H   0  0  0  0  0  0  0  0  0  0  0  0
    4.7421   -0.1459   -2.6185 H   0  0  0  0  0  0  0  0  0  0  0  0
    6.5316   -0.4348   -5.0409 H   0  0  0  0  0  0  0  0  0  0  0  0
    7.0688   -0.1146   -3.3745 H   0  0  0  0  0  0  0  0  0  0  0  0
    8.3233   -2.2534   -3.3678 H   0  0  0  0  0  0  0  0  0  0  0  0
    7.7862   -2.5737   -5.0343 H   0  0  0  0  0  0  0  0  0  0  0  0
    8.8651   -1.1991   -4.6956 H   0  0  0  0  0  0  0  0  0  0  0  0
   -3.5841    2.8456   -8.5037 H   0  0  0  0  0  0  0  0  0  0  0  0
  1  2  1  0  0  0  0
  1 32  1  0  0  0  0
  1 33  1  0  0  0  0
  1 34  1  0  0  0  0
  2  3  1  0  0  0  0
  2 35  1  0  0  0  0
  2 36  1  0  0  0  0
  3 26  2  0  0  0  0
  3  4  1  0  0  0  0
  4  9  2  0  0  0  0
  4  5  1  0  0  0  0
  5  6  2  0  0  0  0
  5 25  1  0  0  0  0
  6  7  1  0  0  0  0
  6 17  1  0  0  0  0
  7  8  2  0  0  0  0
  8  9  1  0  0  0  0
  8 10  1  0  0  0  0
 10 11  1  0  0  0  0
 10 12  1  0  0  0  0
 11 37  1  0  0  0  0
 11 38  1  0  0  0  0
 11 39  1  0  0  0  0
 12 16  1  0  0  0  0
 12 13  1  0  0  0  0
 12 40  1  0  0  0  0
 13 14  1  0  0  0  0
 13 41  1  0  0  0  0
 13 42  1  0  0  0  0
 14 15  1  0  0  0  0
 14 43  1  0  0  0  0
 14 44  1  0  0  0  0
 15 16  1  0  0  0  0
 15 45  1  0  0  0  0
 15 64  1  0  0  0  0
 16 46  1  0  0  0  0
 16 47  1  0  0  0  0
 17 18  1  0  0  0  0
 17 48  1  0  0  0  0
 18 23  2  0  0  0  0
 18 19  1  0  0  0  0
 19 20  2  0  0  0  0
 19 49  1  0  0  0  0
 20 21  1  0  0  0  0
 20 24  1  0  0  0  0
 21 22  2  0  0  0  0
 21 50  1  0  0  0  0
 22 23  1  0  0  0  0
 22 51  1  0  0  0  0
 24 52  1  0  0  0  0
 24 53  1  0  0  0  0
 24 54  1  0  0  0  0
 25 26  1  0  0  0  0
 25 27  1  0  0  0  0
 27 28  1  0  0  0  0
 27 55  1  0  0  0  0
 27 56  1  0  0  0  0
 28 29  1  0  0  0  0
 28 57  1  0  0  0  0
 28 58  1  0  0  0  0
 29 30  1  0  0  0  0
 30 31  1  0  0  0  0
 30 59  1  0  0  0  0
 30 60  1  0  0  0  0
 31 61  1  0  0  0  0
 31 62  1  0  0  0  0
 31 63  1  0  0  0  0
M  CHG  1  15   1
M  END
$$$$
CHEMBL1094830
  -OEChem-07121202283D

 65 68  0     1  0  0  0  0  0999 V2000
    0.5138    1.9071   -0.1481 C   0  0  0  0  0  0  0  0  0  0  0  0
   -0.0191    0.4938   -0.3923 C   0  0  0  0  0  0  0  0  0  0  0  0
    0.6712   -0.1031   -1.5916 C   0  0  0  0  0  0  0  0  0  0  0  0
    0.2332    0.0023   -2.9289 C   0  0  0  0  0  0  0  0  0  0  0  0
    1.1634   -0.6945   -3.7195 C   0  0  0  0  0  0  0  0  0  0  0  0
    0.9588   -0.7450   -5.1056 C   0  0  0  0  0  0  0  0  0  0  0  0
   -0.1039   -0.1334   -5.6148 N   0  0  0  0  0  0  0  0  0  0  0  0
   -0.9621    0.5159   -4.8365 C   0  0  0  0  0  0  0  0  0  0  0  0
   -0.8114    0.5907   -3.5275 N   0  0  0  0  0  0  0  0  0  0  0  0
   -2.0549    1.1376   -5.4199 N   0  0  0  0  0  0  0  0  0  0  0  0
   -2.9576    1.9514   -4.6020 C   0  0  0  0  0  0  0  0  0  0  0  0
   -2.3072    0.9809   -6.8545 C   0  0  1  0  0  0  0  0  0  0  0  0
   -3.7701    0.5440   -7.0974 C   0  0  0  0  0  0  0  0  0  0  0  0
   -4.4830    1.8822   -7.4162 C   0  0  0  0  0  0  0  0  0  0  0  0
   -3.4708    2.6260   -8.2091 N   0  3  0  0  0  0  0  0  0  0  0  0
   -2.1675    2.3358   -7.5728 C   0  0  0  0  0  0  0  0  0  0  0  0
    1.8477   -1.4190   -5.9273 N   0  0  0  0  0  0  0  0  0  0  0  0
    1.5596   -1.5812   -7.2793 C   0  0  0  0  0  0  0  0  0  0  0  0
    0.2399   -1.5210   -7.7149 C   0  0  0  0  0  0  0  0  0  0  0  0
   -0.0322   -1.6840   -9.0613 C   0  0  0  0  0  0  0  0  0  0  0  0
    1.0289   -1.9024   -9.9301 C   0  0  0  0  0  0  0  0  0  0  0  0
    2.3143   -1.9503   -9.4288 C   0  0  0  0  0  0  0  0  0  0  0  0
    2.5446   -1.7861   -8.1399 N   0  3  0  0  0  0  0  0  0  0  0  0
   -1.4482   -1.6261   -9.5737 C   0  0  0  0  0  0  0  0  0  0  0  0
    2.1143   -1.1904   -2.8665 N   0  0  0  0  0  0  0  0  0  0  0  0
    1.7744   -0.7972   -1.5653 N   0  0  0  0  0  0  0  0  0  0  0  0
    3.2833   -1.9865   -3.2484 C   0  0  0  0  0  0  0  0  0  0  0  0
    4.4128   -1.0541   -3.6909 C   0  0  0  0  0  0  0  0  0  0  0  0
    5.5531   -1.8306   -4.0633 O   0  0  0  0  0  0  0  0  0  0  0  0
    6.6708   -1.0518   -4.4950 C   0  0  0  0  0  0  0  0  0  0  0  0
    7.8274   -1.9819   -4.8666 C   0  0  0  0  0  0  0  0  0  0  0  0
    1.5875    1.8640    0.0348 H   0  0  0  0  0  0  0  0  0  0  0  0
    0.3191    2.5253   -1.0244 H   0  0  0  0  0  0  0  0  0  0  0  0
    0.0146    2.3388    0.7194 H   0  0  0  0  0  0  0  0  0  0  0  0
    0.1757   -0.1244    0.4841 H   0  0  0  0  0  0  0  0  0  0  0  0
   -1.0927    0.5369   -0.5751 H   0  0  0  0  0  0  0  0  0  0  0  0
   -2.6069    2.9834   -4.5908 H   0  0  0  0  0  0  0  0  0  0  0  0
   -3.9624    1.9137   -5.0227 H   0  0  0  0  0  0  0  0  0  0  0  0
   -2.9752    1.5626   -3.5838 H   0  0  0  0  0  0  0  0  0  0  0  0
   -1.6175    0.2532   -7.2820 H   0  0  0  0  0  0  0  0  0  0  0  0
   -3.8332   -0.1382   -7.9452 H   0  0  0  0  0  0  0  0  0  0  0  0
   -4.1901    0.0872   -6.2013 H   0  0  0  0  0  0  0  0  0  0  0  0
   -5.3822    1.7078   -8.0070 H   0  0  0  0  0  0  0  0  0  0  0  0
   -4.7226    2.4187   -6.4981 H   0  0  0  0  0  0  0  0  0  0  0  0
   -3.4711    2.3024   -9.1648 H   0  0  0  0  0  0  0  0  0  0  0  0
   -1.9250    3.1156   -6.8509 H   0  0  0  0  0  0  0  0  0  0  0  0
   -1.3887    2.2746   -8.3330 H   0  0  0  0  0  0  0  0  0  0  0  0
    2.6708   -1.7778   -5.5604 H   0  0  0  0  0  0  0  0  0  0  0  0
   -0.5614   -1.3498   -7.0114 H   0  0  0  0  0  0  0  0  0  0  0  0
    0.8504   -2.0339  -10.9870 H   0  0  0  0  0  0  0  0  0  0  0  0
    3.1425   -2.1200  -10.1008 H   0  0  0  0  0  0  0  0  0  0  0  0
   -1.6970   -0.5985   -9.8386 H   0  0  0  0  0  0  0  0  0  0  0  0
   -1.5421   -2.2613  -10.4545 H   0  0  0  0  0  0  0  0  0  0  0  0
   -2.1297   -1.9768   -8.7986 H   0  0  0  0  0  0  0  0  0  0  0  0
    3.6142   -2.5786   -2.3951 H   0  0  0  0  0  0  0  0  0  0  0  0
    3.0176   -2.6510   -4.0705 H   0  0  0  0  0  0  0  0  0  0  0  0
    4.0820   -0.4620   -4.5441 H   0  0  0  0  0  0  0  0  0  0  0  0
    4.6786   -0.3896   -2.8687 H   0  0  0  0  0  0  0  0  0  0  0  0
    6.3868   -0.4597   -5.3649 H   0  0  0  0  0  0  0  0  0  0  0  0
    6.9834   -0.3873   -3.6895 H   0  0  0  0  0  0  0  0  0  0  0  0
    8.1114   -2.5740   -3.9966 H   0  0  0  0  0  0  0  0  0  0  0  0
    7.5149   -2.6465   -5.6721 H   0  0  0  0  0  0  0  0  0  0  0  0
    8.6800   -1.3879   -5.1959 H   0  0  0  0  0  0  0  0  0  0  0  0
   -3.6616    3.6162   -8.1755 H   0  0  0  0  0  0  0  0  0  0  0  0
    3.4577   -1.8204   -7.8144 H   0  0  0  0  0  0  0  0  0  0  0  0
  1  2  1  0  0  0  0
  1 32  1  0  0  0  0
  1 33  1  0  0  0  0
  1 34  1  0  0  0  0
  2  3  1  0  0  0  0
  2 35  1  0  0  0  0
  2 36  1  0  0  0  0
  3 26  2  0  0  0  0
  3  4  1  0  0  0  0
  4  9  2  0  0  0  0
  4  5  1  0  0  0  0
  5  6  2  0  0  0  0
  5 25  1  0  0  0  0
  6  7  1  0  0  0  0
  6 17  1  0  0  0  0
  7  8  2  0  0  0  0
  8  9  1  0  0  0  0
  8 10  1  0  0  0  0
 10 11  1  0  0  0  0
 10 12  1  0  0  0  0
 11 37  1  0  0  0  0
 11 38  1  0  0  0  0
 11 39  1  0  0  0  0
 12 16  1  0  0  0  0
 12 13  1  0  0  0  0
 12 40  1  0  0  0  0
 13 14  1  0  0  0  0
 13 41  1  0  0  0  0
 13 42  1  0  0  0  0
 14 15  1  0  0  0  0
 14 43  1  0  0  0  0
 14 44  1  0  0  0  0
 15 16  1  0  0  0  0
 15 45  1  0  0  0  0
 15 64  1  0  0  0  0
 16 46  1  0  0  0  0
 16 47  1  0  0  0  0
 17 18  1  0  0  0  0
 17 48  1  0  0  0  0
 18 23  2  0  0  0  0
 18 19  1  0  0  0  0
 19 20  2  0  0  0  0
 19 49  1  0  0  0  0
 20 21  1  0  0  0  0
 20 24  1  0  0  0  0
 21 22  2  0  0  0  0
 21 50  1  0  0  0  0
 22 23  1  0  0  0  0
 22 51  1  0  0  0  0
 23 65  1  0  0  0  0
 24 52  1  0  0  0  0
 24 53  1  0  0  0  0
 24 54  1  0  0  0  0
 25 26  1  0  0  0  0
 25 27  1  0  0  0  0
 27 28  1  0  0  0  0
 27 55  1  0  0  0  0
 27 56  1  0  0  0  0
 28 29  1  0  0  0  0
 28 57  1  0  0  0  0
 28 58  1  0  0  0  0
 29 30  1  0  0  0  0
 30 31  1  0  0  0  0
 30 59  1  0  0  0  0
 30 60  1  0  0  0  0
 31 61  1  0  0  0  0
 31 62  1  0  0  0  0
 31 63  1  0  0  0  0
M  CHG  2  15   1  23   1
M  END
$$$$
CHEMBL543818
  -OEChem-07121202283D

 62 65  0     0  0  0  0  0  0999 V2000
    2.2038    1.4796    0.4413 C   0  0  0  0  0  0  0  0  0  0  0  0
    2.0548    0.0584    0.4480 O   0  0  0  0  0  0  0  0  0  0  0  0
    2.0494   -0.5667   -0.7579 C   0  0  0  0  0  0  0  0  0  0  0  0
    2.1914    0.1816   -1.9243 C   0  0  0  0  0  0  0  0  0  0  0  0
    2.1879   -0.4336   -3.1562 C   0  0  0  0  0  0  0  0  0  0  0  0
    2.0414   -1.8181   -3.2360 C   0  0  0  0  0  0  0  0  0  0  0  0
    1.8976   -2.5801   -2.0550 C   0  0  0  0  0  0  0  0  0  0  0  0
    1.9085   -1.9428   -0.8171 C   0  0  0  0  0  0  0  0  0  0  0  0
    1.7443   -4.0379   -2.1678 C   0  0  0  0  0  0  0  0  0  0  0  0
    1.6184   -4.7170   -1.1652 O   0  0  0  0  0  0  0  0  0  0  0  0
    1.7430   -4.6209   -3.3812 N   0  0  0  0  0  0  0  0  0  0  0  0
    1.8827   -3.8932   -4.5467 C   0  0  0  0  0  0  0  0  0  0  0  0
    2.0313   -2.5186   -4.5285 C   0  0  0  0  0  0  0  0  0  0  0  0
    2.1779   -1.7641   -5.7907 C   0  0  0  0  0  0  0  0  0  0  0  0
    3.3709   -1.0944   -6.0706 C   0  0  0  0  0  0  0  0  0  0  0  0
    3.5058   -0.3894   -7.2528 C   0  0  0  0  0  0  0  0  0  0  0  0
    2.4537   -0.3467   -8.1629 C   0  0  0  0  0  0  0  0  0  0  0  0
    1.2634   -1.0129   -7.8860 C   0  0  0  0  0  0  0  0  0  0  0  0
    1.1258   -1.7245   -6.7081 C   0  0  0  0  0  0  0  0  0  0  0  0
    0.2370   -0.9689   -8.7771 O   0  0  0  0  0  0  0  0  0  0  0  0
   -0.9553   -1.6753   -8.4287 C   0  0  0  0  0  0  0  0  0  0  0  0
    2.5886    0.3476   -9.3244 O   0  0  0  0  0  0  0  0  0  0  0  0
    3.1050   -0.3653  -10.4501 C   0  0  0  0  0  0  0  0  0  0  0  0
    4.6674    0.2630   -7.5260 O   0  0  0  0  0  0  0  0  0  0  0  0
    5.7053    0.1773   -6.5475 C   0  0  0  0  0  0  0  0  0  0  0  0
    1.8726   -4.5947   -5.8338 C   0  0  0  0  0  0  0  0  0  0  0  0
    1.9002   -3.9614   -6.8717 O   0  0  0  0  0  0  0  0  0  0  0  0
    1.8329   -5.9428   -5.8669 O   0  0  0  0  0  0  0  0  0  0  0  0
    1.9402   -6.5637   -7.1495 C   0  0  0  0  0  0  0  0  0  0  0  0
    1.5955   -6.0110   -3.4644 C   0  0  0  0  0  0  0  0  0  0  0  0
    0.3262   -6.5752   -3.4773 C   0  0  0  0  0  0  0  0  0  0  0  0
    0.1808   -7.9453   -3.5598 C   0  0  0  0  0  0  0  0  0  0  0  0
    1.3039   -8.7600   -3.6298 C   0  0  0  0  0  0  0  0  0  0  0  0
    2.5733   -8.1956   -3.6169 C   0  0  0  0  0  0  0  0  0  0  0  0
    2.7185   -6.8252   -3.5398 C   0  0  0  0  0  0  0  0  0  0  0  0
    1.1567  -10.1479   -3.7129 N   0  0  0  0  0  0  0  0  0  0  0  0
    3.1507    1.7435   -0.0296 H   0  0  0  0  0  0  0  0  0  0  0  0
    1.3825    1.9284   -0.1175 H   0  0  0  0  0  0  0  0  0  0  0  0
    2.1917    1.8510    1.4660 H   0  0  0  0  0  0  0  0  0  0  0  0
    2.3048    1.2538   -1.8618 H   0  0  0  0  0  0  0  0  0  0  0  0
    2.2978    0.1533   -4.0562 H   0  0  0  0  0  0  0  0  0  0  0  0
    1.8032   -2.5178    0.0911 H   0  0  0  0  0  0  0  0  0  0  0  0
    4.1874   -1.1266   -5.3644 H   0  0  0  0  0  0  0  0  0  0  0  0
    0.2036   -2.2450   -6.4957 H   0  0  0  0  0  0  0  0  0  0  0  0
   -0.7261   -2.7329   -8.2980 H   0  0  0  0  0  0  0  0  0  0  0  0
   -1.3573   -1.2731   -7.4988 H   0  0  0  0  0  0  0  0  0  0  0  0
   -1.6921   -1.5587   -9.2235 H   0  0  0  0  0  0  0  0  0  0  0  0
    2.4464   -1.2018  -10.6837 H   0  0  0  0  0  0  0  0  0  0  0  0
    3.1615    0.3035  -11.3089 H   0  0  0  0  0  0  0  0  0  0  0  0
    4.1010   -0.7414  -10.2163 H   0  0  0  0  0  0  0  0  0  0  0  0
    6.5740    0.7402   -6.8890 H   0  0  0  0  0  0  0  0  0  0  0  0
    5.3507    0.5930   -5.6044 H   0  0  0  0  0  0  0  0  0  0  0  0
    5.9829   -0.8668   -6.4028 H   0  0  0  0  0  0  0  0  0  0  0  0
    1.9787   -7.6461   -7.0271 H   0  0  0  0  0  0  0  0  0  0  0  0
    1.0745   -6.2972   -7.7558 H   0  0  0  0  0  0  0  0  0  0  0  0
    2.8493   -6.2214   -7.6439 H   0  0  0  0  0  0  0  0  0  0  0  0
   -0.5468   -5.9419   -3.4225 H   0  0  0  0  0  0  0  0  0  0  0  0
   -0.8060   -8.3840   -3.5695 H   0  0  0  0  0  0  0  0  0  0  0  0
    3.4464   -8.8290   -3.6710 H   0  0  0  0  0  0  0  0  0  0  0  0
    3.7052   -6.3862   -3.5342 H   0  0  0  0  0  0  0  0  0  0  0  0
    0.2704  -10.5419   -3.7216 H   0  0  0  0  0  0  0  0  0  0  0  0
    1.9409  -10.7167   -3.7618 H   0  0  0  0  0  0  0  0  0  0  0  0
  1  2  1  0  0  0  0
  1 37  1  0  0  0  0
  1 38  1  0  0  0  0
  1 39  1  0  0  0  0
  2  3  1  0  0  0  0
  3  8  2  0  0  0  0
  3  4  1  0  0  0  0
  4  5  2  0  0  0  0
  4 40  1  0  0  0  0
  5  6  1  0  0  0  0
  5 41  1  0  0  0  0
  6 13  1  0  0  0  0
  6  7  2  0  0  0  0
  7  8  1  0  0  0  0
  7  9  1  0  0  0  0
  8 42  1  0  0  0  0
  9 10  2  0  0  0  0
  9 11  1  0  0  0  0
 11 12  1  0  0  0  0
 11 30  1  0  0  0  0
 12 13  2  0  0  0  0
 12 26  1  0  0  0  0
 13 14  1  0  0  0  0
 14 19  2  0  0  0  0
 14 15  1  0  0  0  0
 15 16  2  0  0  0  0
 15 43  1  0  0  0  0
 16 17  1  0  0  0  0
 16 24  1  0  0  0  0
 17 18  2  0  0  0  0
 17 22  1  0  0  0  0
 18 19  1  0  0  0  0
 18 20  1  0  0  0  0
 19 44  1  0  0  0  0
 20 21  1  0  0  0  0
 21 45  1  0  0  0  0
 21 46  1  0  0  0  0
 21 47  1  0  0  0  0
 22 23  1  0  0  0  0
 23 48  1  0  0  0  0
 23 49  1  0  0  0  0
 23 50  1  0  0  0  0
 24 25  1  0  0  0  0
 25 51  1  0  0  0  0
 25 52  1  0  0  0  0
 25 53  1  0  0  0  0
 26 27  2  0  0  0  0
 26 28  1  0  0  0  0
 28 29  1  0  0  0  0
 29 54  1  0  0  0  0
 29 55  1  0  0  0  0
 29 56  1  0  0  0  0
 30 35  2  0  0  0  0
 30 31  1  0  0  0  0
 31 32  2  0  0  0  0
 31 57  1  0  0  0  0
 32 33  1  0  0  0  0
 32 58  1  0  0  0  0
 33 34  2  0  0  0  0
 33 36  1  0  0  0  0
 34 35  1  0  0  0  0
 34 59  1  0  0  0  0
 35 60  1  0  0  0  0
 36 61  1  0  0  0  0
 36 62  1  0  0  0  0
M  END
$$$$
CHEMBL118462
  -OEChem-07121202283D

 40 43  0     0  0  0  0  0  0999 V2000
   -0.0167    1.3781    0.0096 C   0  0  0  0  0  0  0  0  0  0  0  0
    1.1709    2.0855    0.0021 C   0  0  0  0  0  0  0  0  0  0  0  0
    2.3773    1.4107   -0.0130 C   0  0  0  0  0  0  0  0  0  0  0  0
    2.3960    0.0285   -0.0201 C   0  0  0  0  0  0  0  0  0  0  0  0
    1.2084   -0.6789   -0.0117 C   0  0  0  0  0  0  0  0  0  0  0  0
    0.0021   -0.0041    0.0020 C   0  0  0  0  0  0  0  0  0  0  0  0
    3.7112   -0.7071   -0.0376 C   0  0  0  0  0  0  0  0  0  0  0  0
    4.1518   -0.9524    1.3379 N   0  0  0  0  0  0  0  0  0  0  0  0
    5.3374   -1.6154    1.5741 C   0  0  0  0  0  0  0  0  0  0  0  0
    5.7781   -1.8676    2.8977 C   0  0  0  0  0  0  0  0  0  0  0  0
    5.0411   -1.4614    4.0149 C   0  0  0  0  0  0  0  0  0  0  0  0
    5.5130   -1.7312    5.2662 C   0  0  0  0  0  0  0  0  0  0  0  0
    6.7180   -2.4045    5.4462 C   0  0  0  0  0  0  0  0  0  0  0  0
    7.4602   -2.8138    4.3786 C   0  0  0  0  0  0  0  0  0  0  0  0
    7.0046   -2.5536    3.0781 C   0  0  0  0  0  0  0  0  0  0  0  0
    7.6961   -2.9351    1.9960 N   0  0  0  0  0  0  0  0  0  0  0  0
    7.2401   -2.6750    0.7857 C   0  0  0  0  0  0  0  0  0  0  0  0
    6.0910   -2.0378    0.5703 N   0  0  0  0  0  0  0  0  0  0  0  0
    8.0389   -3.1155   -0.3847 C   0  0  0  0  0  0  0  0  0  0  0  0
    7.6038   -2.8598   -1.6879 C   0  0  0  0  0  0  0  0  0  0  0  0
    8.3779   -3.2868   -2.7482 C   0  0  0  0  0  0  0  0  0  0  0  0
    9.5125   -3.9271   -2.5434 N   0  0  0  0  0  0  0  0  0  0  0  0
    9.9587   -4.1883   -1.3302 C   0  0  0  0  0  0  0  0  0  0  0  0
    9.2496   -3.7922   -0.2139 C   0  0  0  0  0  0  0  0  0  0  0  0
   -0.9591    1.9053    0.0259 H   0  0  0  0  0  0  0  0  0  0  0  0
    1.1563    3.1654    0.0076 H   0  0  0  0  0  0  0  0  0  0  0  0
    3.3051    1.9634   -0.0196 H   0  0  0  0  0  0  0  0  0  0  0  0
    1.2231   -1.7588   -0.0176 H   0  0  0  0  0  0  0  0  0  0  0  0
   -0.9258   -0.5567    0.0082 H   0  0  0  0  0  0  0  0  0  0  0  0
    3.5884   -1.6586   -0.5549 H   0  0  0  0  0  0  0  0  0  0  0  0
    4.4573   -0.1052   -0.5563 H   0  0  0  0  0  0  0  0  0  0  0  0
    3.6095   -0.6484    2.0824 H   0  0  0  0  0  0  0  0  0  0  0  0
    4.1052   -0.9376    3.8880 H   0  0  0  0  0  0  0  0  0  0  0  0
    4.9441   -1.4176    6.1290 H   0  0  0  0  0  0  0  0  0  0  0  0
    7.0705   -2.6055    6.4471 H   0  0  0  0  0  0  0  0  0  0  0  0
    8.3934   -3.3350    4.5333 H   0  0  0  0  0  0  0  0  0  0  0  0
    6.6756   -2.3362   -1.8630 H   0  0  0  0  0  0  0  0  0  0  0  0
    8.0499   -3.0941   -3.7590 H   0  0  0  0  0  0  0  0  0  0  0  0
   10.8934   -4.7154   -1.2083 H   0  0  0  0  0  0  0  0  0  0  0  0
    9.6232   -4.0053    0.7768 H   0  0  0  0  0  0  0  0  0  0  0  0
  1  6  2  0  0  0  0
  1  2  1  0  0  0  0
  1 25  1  0  0  0  0
  2  3  2  0  0  0  0
  2 26  1  0  0  0  0
  3  4  1  0  0  0  0
  3 27  1  0  0  0  0
  4  5  2  0  0  0  0
  4  7  1  0  0  0  0
  5  6  1  0  0  0  0
  5 28  1  0  0  0  0
  6 29  1  0  0  0  0
  7  8  1  0  0  0  0
  7 30  1  0  0  0  0
  7 31  1  0  0  0  0
  8  9  1  0  0  0  0
  8 32  1  0  0  0  0
  9 18  2  0  0  0  0
  9 10  1  0  0  0  0
 10 15  2  0  0  0  0
 10 11  1  0  0  0  0
 11 12  2  0  0  0  0
 11 33  1  0  0  0  0
 12 13  1  0  0  0  0
 12 34  1  0  0  0  0
 13 14  2  0  0  0  0
 13 35  1  0  0  0  0
 14 15  1  0  0  0  0
 14 36  1  0  0  0  0
 15 16  1  0  0  0  0
 16 17  2  0  0  0  0
 17 18  1  0  0  0  0
 17 19  1  0  0  0  0
 19 24  2  0  0  0  0
 19 20  1  0  0  0  0
 20 21  2  0  0  0  0
 20 37  1  0  0  0  0
 21 22  1  0  0  0  0
 21 38  1  0  0  0  0
 22 23  2  0  0  0  0
 23 24  1  0  0  0  0
 23 39  1  0  0  0  0
 24 40  1  0  0  0  0
M  END
$$$$
CHEMBL560687
  -OEChem-07121202283D

 67 71  0     0  0  0  0  0  0999 V2000
   -0.0173    1.4248    0.0099 C   0  0  0  0  0  0  0  0  0  0  0  0
    0.0021   -0.0041    0.0020 O   0  0  0  0  0  0  0  0  0  0  0  0
   -1.1977   -0.6361    0.0101 C   0  0  0  0  0  0  0  0  0  0  0  0
   -1.2405   -2.0261    0.0088 C   0  0  0  0  0  0  0  0  0  0  0  0
   -2.4654   -2.6634    0.0175 C   0  0  0  0  0  0  0  0  0  0  0  0
   -3.6245   -1.8773    0.0273 C   0  0  0  0  0  0  0  0  0  0  0  0
   -3.5004   -0.4897    0.0280 C   0  0  0  0  0  0  0  0  0  0  0  0
   -2.3114    0.0783    0.0245 N   0  0  0  0  0  0  0  0  0  0  0  0
   -4.9630   -2.5121    0.0364 C   0  0  0  0  0  0  0  0  0  0  0  0
   -6.1056   -1.7064    0.0404 C   0  0  0  0  0  0  0  0  0  0  0  0
   -7.3423   -2.2895    0.0488 C   0  0  0  0  0  0  0  0  0  0  0  0
   -7.4222   -3.6932    0.0532 C   0  0  0  0  0  0  0  0  0  0  0  0
   -6.2325   -4.4455    0.0488 C   0  0  0  0  0  0  0  0  0  0  0  0
   -5.0570   -3.8342    0.0352 N   0  0  0  0  0  0  0  0  0  0  0  0
   -6.2914   -5.8248    0.0529 N   0  0  0  0  0  0  0  0  0  0  0  0
   -7.4973   -6.4322    0.0612 C   0  0  0  0  0  0  0  0  0  0  0  0
   -7.5750   -7.6469    0.0653 O   0  0  0  0  0  0  0  0  0  0  0  0
   -8.7187   -5.6066    0.0656 C   0  0  0  0  0  0  0  0  0  0  0  0
   -8.6246   -4.3004    0.0610 N   0  0  0  0  0  0  0  0  0  0  0  0
   -9.9636   -6.2113    0.0735 N   0  0  0  0  0  0  0  0  0  0  0  0
  -11.1768   -5.3902    0.0779 C   0  0  0  0  0  0  0  0  0  0  0  0
  -12.4077   -6.2990    0.0865 C   0  0  0  0  0  0  0  0  0  0  0  0
  -12.4704   -7.0891   -1.2242 C   0  0  0  0  0  0  0  0  0  0  0  0
  -13.7457   -7.9359   -1.2400 C   0  0  0  0  0  0  0  0  0  0  0  0
  -14.8830   -7.0848   -1.0838 O   0  0  0  0  0  0  0  0  0  0  0  0
  -14.9022   -6.3564    0.1455 C   0  0  0  0  0  0  0  0  0  0  0  0
  -13.6734   -5.4462    0.2169 C   0  0  0  0  0  0  0  0  0  0  0  0
   -5.0607   -6.6196    0.0479 C   0  0  0  0  0  0  0  0  0  0  0  0
   -4.6239   -6.8923    1.4886 C   0  0  0  0  0  0  0  0  0  0  0  0
   -4.2507   -5.5726    2.1669 C   0  0  0  0  0  0  0  0  0  0  0  0
   -3.8138   -5.8453    3.6076 C   0  0  0  0  0  0  0  0  0  0  0  0
   -2.6011   -6.7781    3.6049 C   0  0  0  0  0  0  0  0  0  0  0  0
   -2.9743   -8.0978    2.9267 C   0  0  0  0  0  0  0  0  0  0  0  0
   -3.4112   -7.8251    1.4859 C   0  0  0  0  0  0  0  0  0  0  0  0
    1.0053    1.8021    0.0021 H   0  0  0  0  0  0  0  0  0  0  0  0
   -0.5445    1.7859   -0.8732 H   0  0  0  0  0  0  0  0  0  0  0  0
   -0.5275    1.7763    0.9067 H   0  0  0  0  0  0  0  0  0  0  0  0
   -0.3260   -2.6007    0.0007 H   0  0  0  0  0  0  0  0  0  0  0  0
   -2.5282   -3.7416    0.0164 H   0  0  0  0  0  0  0  0  0  0  0  0
   -4.3873    0.1264    0.0352 H   0  0  0  0  0  0  0  0  0  0  0  0
   -6.0120   -0.6305    0.0373 H   0  0  0  0  0  0  0  0  0  0  0  0
   -8.2375   -1.6855    0.0524 H   0  0  0  0  0  0  0  0  0  0  0  0
  -10.0327   -7.1789    0.0762 H   0  0  0  0  0  0  0  0  0  0  0  0
  -11.1851   -4.7589    0.9665 H   0  0  0  0  0  0  0  0  0  0  0  0
  -11.1944   -4.7632   -0.8135 H   0  0  0  0  0  0  0  0  0  0  0  0
  -12.3451   -6.9896    0.9275 H   0  0  0  0  0  0  0  0  0  0  0  0
  -12.4821   -6.3972   -2.0664 H   0  0  0  0  0  0  0  0  0  0  0  0
  -11.5997   -7.7405   -1.2989 H   0  0  0  0  0  0  0  0  0  0  0  0
  -13.8173   -8.4677   -2.1888 H   0  0  0  0  0  0  0  0  0  0  0  0
  -13.7147   -8.6550   -0.4215 H   0  0  0  0  0  0  0  0  0  0  0  0
  -15.8069   -5.7504    0.1948 H   0  0  0  0  0  0  0  0  0  0  0  0
  -14.8864   -7.0549    0.9821 H   0  0  0  0  0  0  0  0  0  0  0  0
  -13.6630   -4.9226    1.1729 H   0  0  0  0  0  0  0  0  0  0  0  0
  -13.7094   -4.7211   -0.5961 H   0  0  0  0  0  0  0  0  0  0  0  0
   -5.2413   -7.5657   -0.4623 H   0  0  0  0  0  0  0  0  0  0  0  0
   -4.2757   -6.0705   -0.4720 H   0  0  0  0  0  0  0  0  0  0  0  0
   -5.4425   -7.3622    2.0338 H   0  0  0  0  0  0  0  0  0  0  0  0
   -3.4321   -5.1027    1.6218 H   0  0  0  0  0  0  0  0  0  0  0  0
   -5.1146   -4.9080    2.1688 H   0  0  0  0  0  0  0  0  0  0  0  0
   -3.5479   -4.9051    4.0908 H   0  0  0  0  0  0  0  0  0  0  0  0
   -4.6325   -6.3152    4.1527 H   0  0  0  0  0  0  0  0  0  0  0  0
   -1.7825   -6.3083    3.0598 H   0  0  0  0  0  0  0  0  0  0  0  0
   -2.2899   -6.9724    4.6313 H   0  0  0  0  0  0  0  0  0  0  0  0
   -2.1104   -8.7624    2.9247 H   0  0  0  0  0  0  0  0  0  0  0  0
   -3.7929   -8.5677    3.4718 H   0  0  0  0  0  0  0  0  0  0  0  0
   -3.6770   -8.7653    1.0027 H   0  0  0  0  0  0  0  0  0  0  0  0
   -2.5925   -7.3552    0.9408 H   0  0  0  0  0  0  0  0  0  0  0  0
  1  2  1  0  0  0  0
  1 35  1  0  0  0  0
  1 36  1  0  0  0  0
  1 37  1  0  0  0  0
  2  3  1  0  0  0  0
  3  8  2  0  0  0  0
  3  4  1  0  0  0  0
  4  5  2  0  0  0  0
  4 38  1  0  0  0  0
  5  6  1  0  0  0  0
  5 39  1  0  0  0  0
  6  7  2  0  0  0  0
  6  9  1  0  0  0  0
  7  8  1  0  0  0  0
  7 40  1  0  0  0  0
  9 14  2  0  0  0  0
  9 10  1  0  0  0  0
 10 11  2  0  0  0  0
 10 41  1  0  0  0  0
 11 12  1  0  0  0  0
 11 42  1  0  0  0  0
 12 19  1  0  0  0  0
 12 13  2  0  0  0  0
 13 14  1  0  0  0  0
 13 15  1  0  0  0  0
 15 16  1  0  0  0  0
 15 28  1  0  0  0  0
 16 17  2  0  0  0  0
 16 18  1  0  0  0  0
 18 19  2  0  0  0  0
 18 20  1  0  0  0  0
 20 21  1  0  0  0  0
 20 43  1  0  0  0  0
 21 22  1  0  0  0  0
 21 44  1  0  0  0  0
 21 45  1  0  0  0  0
 22 27  1  0  0  0  0
 22 23  1  0  0  0  0
 22 46  1  0  0  0  0
 23 24  1  0  0  0  0
 23 47  1  0  0  0  0
 23 48  1  0  0  0  0
 24 25  1  0  0  0  0
 24 49  1  0  0  0  0
 24 50  1  0  0  0  0
 25 26  1  0  0  0  0
 26 27  1  0  0  0  0
 26 51  1  0  0  0  0
 26 52  1  0  0  0  0
 27 53  1  0  0  0  0
 27 54  1  0  0  0  0
 28 29  1  0  0  0  0
 28 55  1  0  0  0  0
 28 56  1  0  0  0  0
 29 34  1  0  0  0  0
 29 30  1  0  0  0  0
 29 57  1  0  0  0  0
 30 31  1  0  0  0  0
 30 58  1  0  0  0  0
 30 59  1  0  0  0  0
 31 32  1  0  0  0  0
 31 60  1  0  0  0  0
 31 61  1  0  0  0  0
 32 33  1  0  0  0  0
 32 62  1  0  0  0  0
 32 63  1  0  0  0  0
 33 34  1  0  0  0  0
 33 64  1  0  0  0  0
 33 65  1  0  0  0  0
 34 66  1  0  0  0  0
 34 67  1  0  0  0  0
M  END
$$$$
CHEMBL583914
  -OEChem-07121202283D

 59 64  0     1  0  0  0  0  0999 V2000
   -0.0187    1.5258    0.0104 C   0  0  0  0  0  0  0  0  0  0  0  0
    0.0021   -0.0041    0.0020 C   0  0  2  0  0  0  0  0  0  0  0  0
    0.4989   -0.3704   -0.8963 H   0  0  0  0  0  0  0  0  0  0  0  0
   -1.4357   -0.5603    0.0842 C   0  0  0  0  0  0  0  0  0  0  0  0
   -1.6546   -0.8198    1.5305 N   0  0  2  0  0  0  0  0  0  0  0  0
   -0.3583   -1.3707    2.0027 C   0  0  0  0  0  0  0  0  0  0  0  0
    0.7132   -0.5372    1.2628 C   0  0  1  0  0  0  0  0  0  0  0  0
    1.0475    0.2910    1.8877 H   0  0  0  0  0  0  0  0  0  0  0  0
    1.8813   -1.4074    0.8764 C   0  0  0  0  0  0  0  0  0  0  0  0
    2.9026   -1.5485    1.7585 N   0  0  0  0  0  0  0  0  0  0  0  0
    2.8678   -1.0936    2.6145 H   0  0  0  0  0  0  0  0  0  0  0  0
    3.9697   -2.3219    1.4491 C   0  0  0  0  0  0  0  0  0  0  0  0
    4.8961   -2.4613    2.2279 O   0  0  0  0  0  0  0  0  0  0  0  0
    3.9685   -2.9844    0.1450 C   0  0  0  0  0  0  0  0  0  0  0  0
    4.8588   -3.8406   -0.5297 C   0  0  0  0  0  0  0  0  0  0  0  0
    4.3441   -4.1339   -1.6919 N   0  0  0  0  0  0  0  0  0  0  0  0
    3.1075   -3.4914   -1.8314 N   0  0  0  0  0  0  0  0  0  0  0  0
    2.8670   -2.7785   -0.7006 C   0  0  0  0  0  0  0  0  0  0  0  0
    1.8611   -1.9927   -0.2852 N   0  0  0  0  0  0  0  0  0  0  0  0
    2.2244   -3.5741   -2.9974 C   0  0  0  0  0  0  0  0  0  0  0  0
    1.8622   -5.0463   -3.2826 C   0  0  0  0  0  0  0  0  0  0  0  0
    1.8295   -5.1369   -4.8285 C   0  0  0  0  0  0  0  0  0  0  0  0
    3.0067   -4.2225   -5.2494 C   0  0  0  0  0  0  0  0  0  0  0  0
    2.9521   -3.0504   -4.2480 C   0  0  0  0  0  0  0  0  0  0  0  0
   -2.7424   -1.7859    1.7332 C   0  0  0  0  0  0  0  0  0  0  0  0
   -4.0567   -1.1471    1.3650 C   0  0  0  0  0  0  0  0  0  0  0  0
   -4.7845   -0.4634    2.3379 C   0  0  0  0  0  0  0  0  0  0  0  0
   -5.9741    0.1248    2.0381 C   0  0  0  0  0  0  0  0  0  0  0  0
   -6.4810    0.0444    0.7291 C   0  0  0  0  0  0  0  0  0  0  0  0
   -5.7409   -0.6511   -0.2604 C   0  0  0  0  0  0  0  0  0  0  0  0
   -4.5130   -1.2414    0.0867 C   0  0  0  0  0  0  0  0  0  0  0  0
   -6.2179   -0.7309   -1.5071 N   0  0  0  0  0  0  0  0  0  0  0  0
   -7.3660   -0.1649   -1.8022 C   0  0  0  0  0  0  0  0  0  0  0  0
   -8.0946    0.5203   -0.8279 C   0  0  0  0  0  0  0  0  0  0  0  0
   -7.6469    0.6124    0.4036 N   0  0  0  0  0  0  0  0  0  0  0  0
    1.0039    1.9031    0.0027 H   0  0  0  0  0  0  0  0  0  0  0  0
   -0.5459    1.8868   -0.8726 H   0  0  0  0  0  0  0  0  0  0  0  0
   -0.5289    1.8773    0.9072 H   0  0  0  0  0  0  0  0  0  0  0  0
   -2.1500    0.1770   -0.2821 H   0  0  0  0  0  0  0  0  0  0  0  0
   -1.5182   -1.4862   -0.4849 H   0  0  0  0  0  0  0  0  0  0  0  0
   -0.2614   -1.2437    3.0810 H   0  0  0  0  0  0  0  0  0  0  0  0
   -0.2722   -2.4235    1.7339 H   0  0  0  0  0  0  0  0  0  0  0  0
    5.8061   -4.1939   -0.1502 H   0  0  0  0  0  0  0  0  0  0  0  0
    1.3189   -2.9934   -2.8217 H   0  0  0  0  0  0  0  0  0  0  0  0
    2.6243   -5.7120   -2.8775 H   0  0  0  0  0  0  0  0  0  0  0  0
    0.8841   -5.2862   -2.8656 H   0  0  0  0  0  0  0  0  0  0  0  0
    1.9990   -6.1616   -5.1591 H   0  0  0  0  0  0  0  0  0  0  0  0
    0.8856   -4.7553   -5.2179 H   0  0  0  0  0  0  0  0  0  0  0  0
    3.9536   -4.7552   -5.1620 H   0  0  0  0  0  0  0  0  0  0  0  0
    2.8638   -3.8612   -6.2678 H   0  0  0  0  0  0  0  0  0  0  0  0
    2.3993   -2.2159   -4.6796 H   0  0  0  0  0  0  0  0  0  0  0  0
    3.9623   -2.7346   -3.9873 H   0  0  0  0  0  0  0  0  0  0  0  0
   -2.5742   -2.6598    1.1039 H   0  0  0  0  0  0  0  0  0  0  0  0
   -2.7672   -2.0909    2.7794 H   0  0  0  0  0  0  0  0  0  0  0  0
   -4.3983   -0.3999    3.3445 H   0  0  0  0  0  0  0  0  0  0  0  0
   -6.5269    0.6508    2.8024 H   0  0  0  0  0  0  0  0  0  0  0  0
   -3.9361   -1.7706   -0.6574 H   0  0  0  0  0  0  0  0  0  0  0  0
   -7.7503   -0.2299   -2.8094 H   0  0  0  0  0  0  0  0  0  0  0  0
   -9.0364    0.9795   -1.0897 H   0  0  0  0  0  0  0  0  0  0  0  0
  1  2  1  0  0  0  0
  1 36  1  0  0  0  0
  1 37  1  0  0  0  0
  1 38  1  0  0  0  0
  2  3  1  0  0  0  0
  2  7  1  0  0  0  0
  2  4  1  0  0  0  0
  4  5  1  0  0  0  0
  4 39  1  0  0  0  0
  4 40  1  0  0  0  0
  5  6  1  0  0  0  0
  5 25  1  0  0  0  0
  6  7  1  0  0  0  0
  6 41  1  0  0  0  0
  6 42  1  0  0  0  0
  7  8  1  0  0  0  0
  7  9  1  0  0  0  0
  9 19  2  0  0  0  0
  9 10  1  0  0  0  0
 10 11  1  0  0  0  0
 10 12  1  0  0  0  0
 12 13  2  0  0  0  0
 12 14  1  0  0  0  0
 14 18  2  0  0  0  0
 14 15  1  0  0  0  0
 15 16  2  0  0  0  0
 15 43  1  0  0  0  0
 16 17  1  0  0  0  0
 17 18  1  0  0  0  0
 17 20  1  0  0  0  0
 18 19  1  0  0  0  0
 20 24  1  0  0  0  0
 20 21  1  0  0  0  0
 20 44  1  0  0  0  0
 21 22  1  0  0  0  0
 21 45  1  0  0  0  0
 21 46  1  0  0  0  0
 22 23  1  0  0  0  0
 22 47  1  0  0  0  0
 22 48  1  0  0  0  0
 23 24  1  0  0  0  0
 23 49  1  0  0  0  0
 23 50  1  0  0  0  0
 24 51  1  0  0  0  0
 24 52  1  0  0  0  0
 25 26  1  0  0  0  0
 25 53  1  0  0  0  0
 25 54  1  0  0  0  0
 26 31  2  0  0  0  0
 26 27  1  0  0  0  0
 27 28  2  0  0  0  0
 27 55  1  0  0  0  0
 28 29  1  0  0  0  0
 28 56  1  0  0  0  0
 29 35  2  0  0  0  0
 29 30  1  0  0  0  0
 30 31  1  0  0  0  0
 30 32  2  0  0  0  0
 31 57  1  0  0  0  0
 32 33  1  0  0  0  0
 33 34  2  0  0  0  0
 33 58  1  0  0  0  0
 34 35  1  0  0  0  0
 34 59  1  0  0  0  0
M  END
$$$$
CHEMBL558466
  -OEChem-07121202283D

 61 64  0     0  0  0  0  0  0999 V2000
   -0.0187    1.5258    0.0104 C   0  0  0  0  0  0  0  0  0  0  0  0
    0.0021   -0.0041    0.0020 C   0  0  0  0  0  0  0  0  0  0  0  0
    0.7182   -0.4975   -1.2568 C   0  0  0  0  0  0  0  0  0  0  0  0
    0.7376   -1.9263   -1.2646 O   0  0  0  0  0  0  0  0  0  0  0  0
    1.3873   -2.4925   -2.4045 C   0  0  0  0  0  0  0  0  0  0  0  0
    1.3486   -4.0190   -2.3077 C   0  0  0  0  0  0  0  0  0  0  0  0
   -0.0404   -4.4782   -2.3855 N   0  0  0  0  0  0  0  0  0  0  0  0
   -0.7967   -4.6143   -1.2385 C   0  0  0  0  0  0  0  0  0  0  0  0
   -2.1307   -5.0560   -1.3268 C   0  0  0  0  0  0  0  0  0  0  0  0
   -2.8851   -5.1885   -0.1485 C   0  0  0  0  0  0  0  0  0  0  0  0
   -2.2912   -4.8816    1.0448 C   0  0  0  0  0  0  0  0  0  0  0  0
   -0.9626   -4.4484    1.0624 C   0  0  0  0  0  0  0  0  0  0  0  0
   -0.2656   -4.3295   -0.0588 N   0  0  0  0  0  0  0  0  0  0  0  0
   -0.3222   -4.1162    2.3566 C   0  0  0  0  0  0  0  0  0  0  0  0
   -1.0408   -4.2417    3.5453 C   0  0  0  0  0  0  0  0  0  0  0  0
   -0.4403   -3.9318    4.7477 C   0  0  0  0  0  0  0  0  0  0  0  0
    0.8749   -3.4958    4.7758 C   0  0  0  0  0  0  0  0  0  0  0  0
    1.5929   -3.3690    3.5972 C   0  0  0  0  0  0  0  0  0  0  0  0
    1.0029   -3.6825    2.3905 C   0  0  0  0  0  0  0  0  0  0  0  0
    1.4588   -3.1929    5.9558 F   0  0  0  0  0  0  0  0  0  0  0  0
   -2.6845   -5.3503   -2.5191 N   0  0  0  0  0  0  0  0  0  0  0  0
   -1.9970   -5.2329   -3.6275 C   0  0  0  0  0  0  0  0  0  0  0  0
   -0.5985   -4.7681   -3.5803 C   0  0  0  0  0  0  0  0  0  0  0  0
    0.0464   -4.6512   -4.6059 O   0  0  0  0  0  0  0  0  0  0  0  0
   -2.5842   -5.5401   -4.8424 N   0  0  0  0  0  0  0  0  0  0  0  0
   -3.9753   -5.9969   -4.8889 C   0  0  0  0  0  0  0  0  0  0  0  0
   -4.3754   -6.2660   -6.3410 C   0  0  0  0  0  0  0  0  0  0  0  0
   -4.3650   -4.9516   -7.1274 C   0  0  0  0  0  0  0  0  0  0  0  0
   -4.8421   -5.2178   -8.5575 C   0  0  0  0  0  0  0  0  0  0  0  0
   -6.1469   -5.7994   -8.5225 O   0  0  0  0  0  0  0  0  0  0  0  0
   -6.2084   -7.0539   -7.8407 C   0  0  0  0  0  0  0  0  0  0  0  0
   -5.7862   -6.8614   -6.3818 C   0  0  0  0  0  0  0  0  0  0  0  0
    1.0039    1.9031    0.0027 H   0  0  0  0  0  0  0  0  0  0  0  0
   -0.5459    1.8868   -0.8726 H   0  0  0  0  0  0  0  0  0  0  0  0
   -0.5289    1.8773    0.9072 H   0  0  0  0  0  0  0  0  0  0  0  0
    0.5293   -0.3651    0.8851 H   0  0  0  0  0  0  0  0  0  0  0  0
   -1.0205   -0.3814    0.0098 H   0  0  0  0  0  0  0  0  0  0  0  0
    0.1910   -0.1364   -2.1398 H   0  0  0  0  0  0  0  0  0  0  0  0
    1.7408   -0.1202   -1.2645 H   0  0  0  0  0  0  0  0  0  0  0  0
    0.8740   -2.1729   -3.3114 H   0  0  0  0  0  0  0  0  0  0  0  0
    2.4238   -2.1566   -2.4361 H   0  0  0  0  0  0  0  0  0  0  0  0
    1.9203   -4.4498   -3.1297 H   0  0  0  0  0  0  0  0  0  0  0  0
    1.7828   -4.3340   -1.3589 H   0  0  0  0  0  0  0  0  0  0  0  0
   -3.9108   -5.5248   -0.1844 H   0  0  0  0  0  0  0  0  0  0  0  0
   -2.8453   -4.9731    1.9672 H   0  0  0  0  0  0  0  0  0  0  0  0
   -2.0660   -4.5807    3.5243 H   0  0  0  0  0  0  0  0  0  0  0  0
   -0.9959   -4.0287    5.6687 H   0  0  0  0  0  0  0  0  0  0  0  0
    2.6175   -3.0285    3.6240 H   0  0  0  0  0  0  0  0  0  0  0  0
    1.5646   -3.5877    1.4730 H   0  0  0  0  0  0  0  0  0  0  0  0
   -2.0746   -5.4530   -5.6631 H   0  0  0  0  0  0  0  0  0  0  0  0
   -4.0763   -6.9138   -4.3083 H   0  0  0  0  0  0  0  0  0  0  0  0
   -4.6244   -5.2281   -4.4697 H   0  0  0  0  0  0  0  0  0  0  0  0
   -3.6709   -6.9664   -6.7895 H   0  0  0  0  0  0  0  0  0  0  0  0
   -5.0322   -4.2351   -6.6483 H   0  0  0  0  0  0  0  0  0  0  0  0
   -3.3524   -4.5488   -7.1503 H   0  0  0  0  0  0  0  0  0  0  0  0
   -4.8775   -4.2786   -9.1097 H   0  0  0  0  0  0  0  0  0  0  0  0
   -4.1517   -5.9030   -9.0494 H   0  0  0  0  0  0  0  0  0  0  0  0
   -7.2280   -7.4374   -7.8765 H   0  0  0  0  0  0  0  0  0  0  0  0
   -5.5359   -7.7631   -8.3232 H   0  0  0  0  0  0  0  0  0  0  0  0
   -5.7899   -7.8246   -5.8715 H   0  0  0  0  0  0  0  0  0  0  0  0
   -6.4821   -6.1836   -5.8876 H   0  0  0  0  0  0  0  0  0  0  0  0
  1  2  1  0  0  0  0
  1 33  1  0  0  0  0
  1 34  1  0  0  0  0
  1 35  1  0  0  0  0
  2  3  1  0  0  0  0
  2 36  1  0  0  0  0
  2 37  1  0  0  0  0
  3  4  1  0  0  0  0
  3 38  1  0  0  0  0
  3 39  1  0  0  0  0
  4  5  1  0  0  0  0
  5  6  1  0  0  0  0
  5 40  1  0  0  0  0
  5 41  1  0  0  0  0
  6  7  1  0  0  0  0
  6 42  1  0  0  0  0
  6 43  1  0  0  0  0
  7 23  1  0  0  0  0
  7  8  1  0  0  0  0
  8 13  2  0  0  0  0
  8  9  1  0  0  0  0
  9 10  2  0  0  0  0
  9 21  1  0  0  0  0
 10 11  1  0  0  0  0
 10 44  1  0  0  0  0
 11 12  2  0  0  0  0
 11 45  1  0  0  0  0
 12 13  1  0  0  0  0
 12 14  1  0  0  0  0
 14 19  2  0  0  0  0
 14 15  1  0  0  0  0
 15 16  2  0  0  0  0
 15 46  1  0  0  0  0
 16 17  1  0  0  0  0
 16 47  1  0  0  0  0
 17 18  2  0  0  0  0
 17 20  1  0  0  0  0
 18 19  1  0  0  0  0
 18 48  1  0  0  0  0
 19 49  1  0  0  0  0
 21 22  2  0  0  0  0
 22 23  1  0  0  0  0
 22 25  1  0  0  0  0
 23 24  2  0  0  0  0
 25 26  1  0  0  0  0
 25 50  1  0  0  0  0
 26 27  1  0  0  0  0
 26 51  1  0  0  0  0
 26 52  1  0  0  0  0
 27 32  1  0  0  0  0
 27 28  1  0  0  0  0
 27 53  1  0  0  0  0
 28 29  1  0  0  0  0
 28 54  1  0  0  0  0
 28 55  1  0  0  0  0
 29 30  1  0  0  0  0
 29 56  1  0  0  0  0
 29 57  1  0  0  0  0
 30 31  1  0  0  0  0
 31 32  1  0  0  0  0
 31 58  1  0  0  0  0
 31 59  1  0  0  0  0
 32 60  1  0  0  0  0
 32 61  1  0  0  0  0
M  END
$$$$
CHEMBL370413
  -OEChem-07121202283D

 54 58  0     1  0  0  0  0  0999 V2000
   -0.1855    1.4509   -0.0633 C   0  0  0  0  0  0  0  0  0  0  0  0
   -0.1550   -0.0786   -0.0864 C   0  0  0  0  0  0  0  0  0  0  0  0
    0.5676   -0.5347   -1.2764 N   0  0  0  0  0  0  0  0  0  0  0  0
   -0.1106   -0.7455   -2.4190 C   0  0  0  0  0  0  0  0  0  0  0  0
   -1.3128   -0.5595   -2.4662 O   0  0  0  0  0  0  0  0  0  0  0  0
    0.6161   -1.2009   -3.6039 C   0  0  0  0  0  0  0  0  0  0  0  0
    1.9851   -1.3996   -3.5052 C   0  0  0  0  0  0  0  0  0  0  0  0
    2.4034   -1.8152   -4.7317 N   0  0  0  0  0  0  0  0  0  0  0  0
    1.3084   -1.8639   -5.5457 C   0  0  0  0  0  0  0  0  0  0  0  0
    0.2523   -1.5000   -4.8761 N   0  0  0  0  0  0  0  0  0  0  0  0
    1.3230   -2.3801   -7.3648 Br  0  0  0  0  0  0  0  0  0  0  0  0
    3.7787   -2.1492   -5.1099 C   0  0  0  0  0  0  0  0  0  0  0  0
    4.4235   -0.9551   -5.7653 C   0  0  0  0  0  0  0  0  0  0  0  0
    4.2137   -0.7085   -7.1095 C   0  0  0  0  0  0  0  0  0  0  0  0
    4.8040    0.3852   -7.7126 C   0  0  0  0  0  0  0  0  0  0  0  0
    5.6076    1.2366   -6.9684 C   0  0  0  0  0  0  0  0  0  0  0  0
    5.8162    0.9872   -5.6197 C   0  0  0  0  0  0  0  0  0  0  0  0
    5.2194   -0.1049   -5.0200 C   0  0  0  0  0  0  0  0  0  0  0  0
    6.1898    2.3129   -7.5596 O   0  0  0  0  0  0  0  0  0  0  0  0
    2.6275   -1.1680   -2.3073 N   0  0  0  0  0  0  0  0  0  0  0  0
    1.9381   -0.7351   -1.2040 C   0  0  0  0  0  0  0  0  0  0  0  0
    2.7020   -0.5602   -0.1590 N   0  3  0  0  0  0  0  0  0  0  0  0
    4.0968   -0.8761   -0.4779 C   0  0  1  0  0  0  0  0  0  0  0  0
    4.4531   -1.7001    0.1404 H   0  0  0  0  0  0  0  0  0  0  0  0
    4.0527   -1.3052   -1.9559 C   0  0  0  0  0  0  0  0  0  0  0  0
    4.9829    0.3567   -0.2887 C   0  0  0  0  0  0  0  0  0  0  0  0
    5.0268    0.7244    1.1721 C   0  0  0  0  0  0  0  0  0  0  0  0
    4.0900    1.5968    1.6937 C   0  0  0  0  0  0  0  0  0  0  0  0
    4.1303    1.9340    3.0337 C   0  0  0  0  0  0  0  0  0  0  0  0
    5.1071    1.3984    3.8522 C   0  0  0  0  0  0  0  0  0  0  0  0
    6.0434    0.5253    3.3307 C   0  0  0  0  0  0  0  0  0  0  0  0
    6.0005    0.1847    1.9916 C   0  0  0  0  0  0  0  0  0  0  0  0
    0.8346    1.8343   -0.0381 H   0  0  0  0  0  0  0  0  0  0  0  0
   -0.6896    1.8178   -0.9574 H   0  0  0  0  0  0  0  0  0  0  0  0
   -0.7231    1.7902    0.8221 H   0  0  0  0  0  0  0  0  0  0  0  0
    0.3491   -0.4456    0.8076 H   0  0  0  0  0  0  0  0  0  0  0  0
   -1.1750   -0.4620   -0.1116 H   0  0  0  0  0  0  0  0  0  0  0  0
    4.3439   -2.4242   -4.2194 H   0  0  0  0  0  0  0  0  0  0  0  0
    3.7705   -2.9864   -5.8079 H   0  0  0  0  0  0  0  0  0  0  0  0
    3.5880   -1.3716   -7.6884 H   0  0  0  0  0  0  0  0  0  0  0  0
    4.6403    0.5770   -8.7628 H   0  0  0  0  0  0  0  0  0  0  0  0
    6.4414    1.6486   -5.0382 H   0  0  0  0  0  0  0  0  0  0  0  0
    5.3780   -0.2970   -3.9691 H   0  0  0  0  0  0  0  0  0  0  0  0
    5.6522    3.1162   -7.5308 H   0  0  0  0  0  0  0  0  0  0  0  0
    4.3810   -2.3374   -2.0778 H   0  0  0  0  0  0  0  0  0  0  0  0
    4.6635   -0.6328   -2.5582 H   0  0  0  0  0  0  0  0  0  0  0  0
    5.9915    0.1364   -0.6384 H   0  0  0  0  0  0  0  0  0  0  0  0
    4.5738    1.1895   -0.8608 H   0  0  0  0  0  0  0  0  0  0  0  0
    3.3269    2.0153    1.0543 H   0  0  0  0  0  0  0  0  0  0  0  0
    3.3989    2.6162    3.4411 H   0  0  0  0  0  0  0  0  0  0  0  0
    5.1391    1.6624    4.8989 H   0  0  0  0  0  0  0  0  0  0  0  0
    6.8068    0.1071    3.9701 H   0  0  0  0  0  0  0  0  0  0  0  0
    6.7297   -0.5004    1.5850 H   0  0  0  0  0  0  0  0  0  0  0  0
    2.3889   -0.2615    0.7092 H   0  0  0  0  0  0  0  0  0  0  0  0
  1  2  1  0  0  0  0
  1 33  1  0  0  0  0
  1 34  1  0  0  0  0
  1 35  1  0  0  0  0
  2  3  1  0  0  0  0
  2 36  1  0  0  0  0
  2 37  1  0  0  0  0
  3 21  1  0  0  0  0
  3  4  1  0  0  0  0
  4  5  2  0  0  0  0
  4  6  1  0  0  0  0
  6 10  1  0  0  0  0
  6  7  2  0  0  0  0
  7  8  1  0  0  0  0
  7 20  1  0  0  0  0
  8  9  1  0  0  0  0
  8 12  1  0  0  0  0
  9 10  2  0  0  0  0
  9 11  1  0  0  0  0
 12 13  1  0  0  0  0
 12 38  1  0  0  0  0
 12 39  1  0  0  0  0
 13 18  2  0  0  0  0
 13 14  1  0  0  0  0
 14 15  2  0  0  0  0
 14 40  1  0  0  0  0
 15 16  1  0  0  0  0
 15 41  1  0  0  0  0
 16 17  2  0  0  0  0
 16 19  1  0  0  0  0
 17 18  1  0  0  0  0
 17 42  1  0  0  0  0
 18 43  1  0  0  0  0
 19 44  1  0  0  0  0
 20 25  1  0  0  0  0
 20 21  1  0  0  0  0
 21 22  2  0  0  0  0
 22 23  1  0  0  0  0
 22 54  1  0  0  0  0
 23 24  1  0  0  0  0
 23 25  1  0  0  0  0
 23 26  1  0  0  0  0
 25 45  1  0  0  0  0
 25 46  1  0  0  0  0
 26 27  1  0  0  0  0
 26 47  1  0  0  0  0
 26 48  1  0  0  0  0
 27 32  2  0  0  0  0
 27 28  1  0  0  0  0
 28 29  2  0  0  0  0
 28 49  1  0  0  0  0
 29 30  1  0  0  0  0
 29 50  1  0  0  0  0
 30 31  2  0  0  0  0
 30 51  1  0  0  0  0
 31 32  1  0  0  0  0
 31 52  1  0  0  0  0
 32 53  1  0  0  0  0
M  CHG  1  22   1
M  END
$$$$
CHEMBL492795
  -OEChem-07121202283D

 72 76  0     0  0  0  0  0  0999 V2000
   -0.0187    1.5258    0.0104 C   0  0  0  0  0  0  0  0  0  0  0  0
    0.0021   -0.0041    0.0020 C   0  0  0  0  0  0  0  0  0  0  0  0
    0.7421   -0.5109    1.2415 C   0  0  0  0  0  0  0  0  0  0  0  0
    0.7625   -2.0177    1.2333 C   0  0  0  0  0  0  0  0  0  0  0  0
   -0.2150   -2.8548    1.8056 C   0  0  0  0  0  0  0  0  0  0  0  0
    0.1902   -4.1752    1.5714 C   0  0  0  0  0  0  0  0  0  0  0  0
   -0.6206   -5.2316    2.0475 C   0  0  0  0  0  0  0  0  0  0  0  0
   -0.3025   -6.3939    1.8644 O   0  0  0  0  0  0  0  0  0  0  0  0
   -1.7563   -4.9210    2.7109 N   0  0  0  0  0  0  0  0  0  0  0  0
   -2.3282   -5.6289    3.0467 H   0  0  0  0  0  0  0  0  0  0  0  0
   -2.1032   -3.6124    2.9116 C   0  0  0  0  0  0  0  0  0  0  0  0
   -1.3622   -2.6230    2.4750 N   0  0  0  0  0  0  0  0  0  0  0  0
   -3.3503   -3.3058    3.6401 C   0  0  0  0  0  0  0  0  0  0  0  0
   -4.1559   -4.3406    4.1193 C   0  0  0  0  0  0  0  0  0  0  0  0
   -5.3192   -4.0479    4.7987 C   0  0  0  0  0  0  0  0  0  0  0  0
   -5.6932   -2.7309    5.0080 C   0  0  0  0  0  0  0  0  0  0  0  0
   -4.9050   -1.6981    4.5390 C   0  0  0  0  0  0  0  0  0  0  0  0
   -3.7289   -1.9750    3.8592 C   0  0  0  0  0  0  0  0  0  0  0  0
   -2.9506   -0.9610    3.4028 O   0  0  0  0  0  0  0  0  0  0  0  0
   -3.4004    0.3701    3.6636 C   0  0  0  0  0  0  0  0  0  0  0  0
   -2.4013    1.3700    3.0781 C   0  0  0  0  0  0  0  0  0  0  0  0
   -6.3348   -5.3548    5.4029 S   0  0  0  0  0  0  0  0  0  0  0  0
   -7.6469   -4.8242    5.5294 O   0  0  0  0  0  0  0  0  0  0  0  0
   -6.0477   -6.4946    4.6044 O   0  0  0  0  0  0  0  0  0  0  0  0
   -5.8174   -5.7083    6.9358 N   0  0  0  0  0  0  0  0  0  0  0  0
   -5.9514   -4.7127    8.0020 C   0  0  0  0  0  0  0  0  0  0  0  0
   -5.7600   -5.3908    9.3601 C   0  0  0  0  0  0  0  0  0  0  0  0
   -5.8941   -4.3951   10.4263 N   0  0  0  0  0  0  0  0  0  0  0  0
   -5.7587   -4.7788   11.7587 C   0  0  0  0  0  0  0  0  0  0  0  0
   -5.4928   -6.0929   12.0807 C   0  0  0  0  0  0  0  0  0  0  0  0
   -5.3552   -6.4863   13.4083 C   0  0  0  0  0  0  0  0  0  0  0  0
   -5.4793   -5.5880   14.4242 C   0  0  0  0  0  0  0  0  0  0  0  0
   -5.7501   -4.2390   14.1390 C   0  0  0  0  0  0  0  0  0  0  0  0
   -5.8866   -3.8249   12.7911 C   0  0  0  0  0  0  0  0  0  0  0  0
   -6.1522   -2.4761   12.5078 C   0  0  0  0  0  0  0  0  0  0  0  0
   -6.2697   -1.5833   13.5291 C   0  0  0  0  0  0  0  0  0  0  0  0
   -6.1296   -1.9883   14.8550 C   0  0  0  0  0  0  0  0  0  0  0  0
   -5.8837   -3.2900   15.1675 C   0  0  0  0  0  0  0  0  0  0  0  0
    1.3696   -4.1140    0.8826 N   0  0  0  0  0  0  0  0  0  0  0  0
    1.6863   -2.7630    0.6895 N   0  0  0  0  0  0  0  0  0  0  0  0
    2.1603   -5.2589    0.4238 C   0  0  0  0  0  0  0  0  0  0  0  0
    1.0039    1.9031    0.0027 H   0  0  0  0  0  0  0  0  0  0  0  0
   -0.5459    1.8868   -0.8726 H   0  0  0  0  0  0  0  0  0  0  0  0
   -0.5289    1.8773    0.9072 H   0  0  0  0  0  0  0  0  0  0  0  0
   -1.0205   -0.3814    0.0098 H   0  0  0  0  0  0  0  0  0  0  0  0
    0.5123   -0.3556   -0.8948 H   0  0  0  0  0  0  0  0  0  0  0  0
    1.7647   -0.1336    1.2338 H   0  0  0  0  0  0  0  0  0  0  0  0
    0.2319   -0.1594    2.1383 H   0  0  0  0  0  0  0  0  0  0  0  0
   -3.8683   -5.3690    3.9577 H   0  0  0  0  0  0  0  0  0  0  0  0
   -6.6064   -2.5102    5.5406 H   0  0  0  0  0  0  0  0  0  0  0  0
   -5.2033   -0.6736    4.7056 H   0  0  0  0  0  0  0  0  0  0  0  0
   -4.3769    0.5203    3.2032 H   0  0  0  0  0  0  0  0  0  0  0  0
   -3.4788    0.5227    4.7400 H   0  0  0  0  0  0  0  0  0  0  0  0
   -1.4248    1.2197    3.5385 H   0  0  0  0  0  0  0  0  0  0  0  0
   -2.3229    1.2173    2.0017 H   0  0  0  0  0  0  0  0  0  0  0  0
   -2.7444    2.3853    3.2770 H   0  0  0  0  0  0  0  0  0  0  0  0
   -5.4256   -6.5747    7.1276 H   0  0  0  0  0  0  0  0  0  0  0  0
   -5.1955   -3.9381    7.8729 H   0  0  0  0  0  0  0  0  0  0  0  0
   -6.9435   -4.2633    7.9569 H   0  0  0  0  0  0  0  0  0  0  0  0
   -6.5159   -6.1654    9.4892 H   0  0  0  0  0  0  0  0  0  0  0  0
   -4.7680   -5.8402    9.4052 H   0  0  0  0  0  0  0  0  0  0  0  0
   -6.0771   -3.4687   10.2046 H   0  0  0  0  0  0  0  0  0  0  0  0
   -5.3905   -6.8253   11.2936 H   0  0  0  0  0  0  0  0  0  0  0  0
   -5.1470   -7.5211   13.6368 H   0  0  0  0  0  0  0  0  0  0  0  0
   -5.3699   -5.9123   15.4486 H   0  0  0  0  0  0  0  0  0  0  0  0
   -6.2624   -2.1480   11.4847 H   0  0  0  0  0  0  0  0  0  0  0  0
   -6.4741   -0.5461   13.3082 H   0  0  0  0  0  0  0  0  0  0  0  0
   -6.2266   -1.2603   15.6468 H   0  0  0  0  0  0  0  0  0  0  0  0
   -5.7786   -3.5898   16.1997 H   0  0  0  0  0  0  0  0  0  0  0  0
    1.8382   -5.5450   -0.5774 H   0  0  0  0  0  0  0  0  0  0  0  0
    3.2154   -4.9863    0.4020 H   0  0  0  0  0  0  0  0  0  0  0  0
    2.0155   -6.0970    1.1055 H   0  0  0  0  0  0  0  0  0  0  0  0
  1  2  1  0  0  0  0
  1 42  1  0  0  0  0
  1 43  1  0  0  0  0
  1 44  1  0  0  0  0
  2  3  1  0  0  0  0
  2 45  1  0  0  0  0
  2 46  1  0  0  0  0
  3  4  1  0  0  0  0
  3 47  1  0  0  0  0
  3 48  1  0  0  0  0
  4 40  2  0  0  0  0
  4  5  1  0  0  0  0
  5 12  1  0  0  0  0
  5  6  2  0  0  0  0
  6  7  1  0  0  0  0
  6 39  1  0  0  0  0
  7  8  2  0  0  0  0
  7  9  1  0  0  0  0
  9 10  1  0  0  0  0
  9 11  1  0  0  0  0
 11 12  2  0  0  0  0
 11 13  1  0  0  0  0
 13 18  2  0  0  0  0
 13 14  1  0  0  0  0
 14 15  2  0  0  0  0
 14 49  1  0  0  0  0
 15 16  1  0  0  0  0
 15 22  1  0  0  0  0
 16 17  2  0  0  0  0
 16 50  1  0  0  0  0
 17 18  1  0  0  0  0
 17 51  1  0  0  0  0
 18 19  1  0  0  0  0
 19 20  1  0  0  0  0
 20 21  1  0  0  0  0
 20 52  1  0  0  0  0
 20 53  1  0  0  0  0
 21 54  1  0  0  0  0
 21 55  1  0  0  0  0
 21 56  1  0  0  0  0
 22 23  2  0  0  0  0
 22 24  2  0  0  0  0
 22 25  1  0  0  0  0
 25 26  1  0  0  0  0
 25 57  1  0  0  0  0
 26 27  1  0  0  0  0
 26 58  1  0  0  0  0
 26 59  1  0  0  0  0
 27 28  1  0  0  0  0
 27 60  1  0  0  0  0
 27 61  1  0  0  0  0
 28 29  1  0  0  0  0
 28 62  1  0  0  0  0
 29 34  2  0  0  0  0
 29 30  1  0  0  0  0
 30 31  2  0  0  0  0
 30 63  1  0  0  0  0
 31 32  1  0  0  0  0
 31 64  1  0  0  0  0
 32 33  2  0  0  0  0
 32 65  1  0  0  0  0
 33 38  1  0  0  0  0
 33 34  1  0  0  0  0
 34 35  1  0  0  0  0
 35 36  2  0  0  0  0
 35 66  1  0  0  0  0
 36 37  1  0  0  0  0
 36 67  1  0  0  0  0
 37 38  2  0  0  0  0
 37 68  1  0  0  0  0
 38 69  1  0  0  0  0
 39 40  1  0  0  0  0
 39 41  1  0  0  0  0
 41 70  1  0  0  0  0
 41 71  1  0  0  0  0
 41 72  1  0  0  0  0
M  END
$$$$
CHEMBL492795
  -OEChem-07121202283D

 72 76  0     0  0  0  0  0  0999 V2000
   -0.0187    1.5258    0.0104 C   0  0  0  0  0  0  0  0  0  0  0  0
    0.0021   -0.0041    0.0020 C   0  0  0  0  0  0  0  0  0  0  0  0
    0.7182   -0.4975   -1.2568 C   0  0  0  0  0  0  0  0  0  0  0  0
    0.7386   -2.0043   -1.2651 C   0  0  0  0  0  0  0  0  0  0  0  0
    1.7371   -2.8090   -0.7054 C   0  0  0  0  0  0  0  0  0  0  0  0
    1.3740   -4.1350   -0.9304 C   0  0  0  0  0  0  0  0  0  0  0  0
    2.2608   -5.1909   -0.4384 C   0  0  0  0  0  0  0  0  0  0  0  0
    1.9844   -6.3672   -0.6123 O   0  0  0  0  0  0  0  0  0  0  0  0
    3.3842   -4.8398    0.2075 N   0  0  0  0  0  0  0  0  0  0  0  0
    3.6977   -3.5767    0.4033 C   0  0  0  0  0  0  0  0  0  0  0  0
    2.9154   -2.5523   -0.0295 N   0  0  0  0  0  0  0  0  0  0  0  0
    4.9471   -3.2598    1.1207 C   0  0  0  0  0  0  0  0  0  0  0  0
    5.3072   -1.9297    1.3507 C   0  0  0  0  0  0  0  0  0  0  0  0
    6.4754   -1.6404    2.0219 C   0  0  0  0  0  0  0  0  0  0  0  0
    7.2958   -2.6630    2.4697 C   0  0  0  0  0  0  0  0  0  0  0  0
    6.9520   -3.9820    2.2486 C   0  0  0  0  0  0  0  0  0  0  0  0
    5.7769   -4.2915    1.5805 C   0  0  0  0  0  0  0  0  0  0  0  0
    5.4349   -5.5872    1.3679 O   0  0  0  0  0  0  0  0  0  0  0  0
    6.3296   -6.5843    1.8652 C   0  0  0  0  0  0  0  0  0  0  0  0
    5.7806   -7.9733    1.5332 C   0  0  0  0  0  0  0  0  0  0  0  0
    6.9282    0.0377    2.3112 S   0  0  0  0  0  0  0  0  0  0  0  0
    8.3389    0.0542    2.4813 O   0  0  0  0  0  0  0  0  0  0  0  0
    6.2716    0.8126    1.3174 O   0  0  0  0  0  0  0  0  0  0  0  0
    6.2708    0.4783    3.7659 N   0  0  0  0  0  0  0  0  0  0  0  0
    6.7243   -0.1673    5.0003 C   0  0  0  0  0  0  0  0  0  0  0  0
    6.2581    0.6520    6.2053 C   0  0  0  0  0  0  0  0  0  0  0  0
    6.7116    0.0064    7.4397 N   0  0  0  0  0  0  0  0  0  0  0  0
    6.4052    0.5727    8.6752 C   0  0  0  0  0  0  0  0  0  0  0  0
    5.6706    1.7375    8.7436 C   0  0  0  0  0  0  0  0  0  0  0  0
    5.3588    2.3108    9.9725 C   0  0  0  0  0  0  0  0  0  0  0  0
    5.7692    1.7403   11.1389 C   0  0  0  0  0  0  0  0  0  0  0  0
    6.5199    0.5528   11.1132 C   0  0  0  0  0  0  0  0  0  0  0  0
    6.8389   -0.0439    9.8685 C   0  0  0  0  0  0  0  0  0  0  0  0
    7.5846   -1.2328    9.8448 C   0  0  0  0  0  0  0  0  0  0  0  0
    7.9867   -1.7996   11.0156 C   0  0  0  0  0  0  0  0  0  0  0  0
    7.6684   -1.2169   12.2407 C   0  0  0  0  0  0  0  0  0  0  0  0
    6.9572   -0.0580   12.3014 C   0  0  0  0  0  0  0  0  0  0  0  0
    0.1890   -4.1166   -1.6070 N   0  0  0  0  0  0  0  0  0  0  0  0
   -0.1769   -2.7759   -1.7917 N   0  0  0  0  0  0  0  0  0  0  0  0
   -0.5677   -5.2881   -2.0556 C   0  0  0  0  0  0  0  0  0  0  0  0
    1.0039    1.9031    0.0027 H   0  0  0  0  0  0  0  0  0  0  0  0
   -0.5459    1.8868   -0.8726 H   0  0  0  0  0  0  0  0  0  0  0  0
   -0.5289    1.8773    0.9072 H   0  0  0  0  0  0  0  0  0  0  0  0
    0.5293   -0.3651    0.8851 H   0  0  0  0  0  0  0  0  0  0  0  0
   -1.0205   -0.3814    0.0098 H   0  0  0  0  0  0  0  0  0  0  0  0
    0.1910   -0.1364   -2.1398 H   0  0  0  0  0  0  0  0  0  0  0  0
    1.7408   -0.1202   -1.2645 H   0  0  0  0  0  0  0  0  0  0  0  0
    4.6710   -1.1293    1.0027 H   0  0  0  0  0  0  0  0  0  0  0  0
    8.2097   -2.4272    2.9946 H   0  0  0  0  0  0  0  0  0  0  0  0
    7.5970   -4.7736    2.6002 H   0  0  0  0  0  0  0  0  0  0  0  0
    7.3075   -6.4595    1.4002 H   0  0  0  0  0  0  0  0  0  0  0  0
    6.4252   -6.4802    2.9460 H   0  0  0  0  0  0  0  0  0  0  0  0
    6.4630   -8.7339    1.9125 H   0  0  0  0  0  0  0  0  0  0  0  0
    4.8027   -8.0982    1.9981 H   0  0  0  0  0  0  0  0  0  0  0  0
    5.6850   -8.0774    0.4524 H   0  0  0  0  0  0  0  0  0  0  0  0
    5.5855    1.1639    3.8006 H   0  0  0  0  0  0  0  0  0  0  0  0
    6.3056   -1.1719    5.0599 H   0  0  0  0  0  0  0  0  0  0  0  0
    7.8127   -0.2267    5.0005 H   0  0  0  0  0  0  0  0  0  0  0  0
    6.6768    1.6566    6.1457 H   0  0  0  0  0  0  0  0  0  0  0  0
    5.1697    0.7115    6.2051 H   0  0  0  0  0  0  0  0  0  0  0  0
    7.2252   -0.8153    7.3969 H   0  0  0  0  0  0  0  0  0  0  0  0
    5.3336    2.2105    7.8331 H   0  0  0  0  0  0  0  0  0  0  0  0
    4.7822    3.2236   10.0018 H   0  0  0  0  0  0  0  0  0  0  0  0
    5.5181    2.2004   12.0832 H   0  0  0  0  0  0  0  0  0  0  0  0
    7.8379   -1.6958    8.9025 H   0  0  0  0  0  0  0  0  0  0  0  0
    8.5604   -2.7144   10.9945 H   0  0  0  0  0  0  0  0  0  0  0  0
    7.9988   -1.6870   13.1552 H   0  0  0  0  0  0  0  0  0  0  0  0
    6.7187    0.3829   13.2580 H   0  0  0  0  0  0  0  0  0  0  0  0
   -1.2651   -5.5910   -1.2745 H   0  0  0  0  0  0  0  0  0  0  0  0
   -1.1218   -5.0381   -2.9604 H   0  0  0  0  0  0  0  0  0  0  0  0
    0.1207   -6.1067   -2.2656 H   0  0  0  0  0  0  0  0  0  0  0  0
    3.1857   -1.6357    0.1370 H   0  0  0  0  0  0  0  0  0  0  0  0
  1  2  1  0  0  0  0
  1 41  1  0  0  0  0
  1 42  1  0  0  0  0
  1 43  1  0  0  0  0
  2  3  1  0  0  0  0
  2 44  1  0  0  0  0
  2 45  1  0  0  0  0
  3  4  1  0  0  0  0
  3 46  1  0  0  0  0
  3 47  1  0  0  0  0
  4 39  2  0  0  0  0
  4  5  1  0  0  0  0
  5 11  1  0  0  0  0
  5  6  2  0  0  0  0
  6  7  1  0  0  0  0
  6 38  1  0  0  0  0
  7  8  2  0  0  0  0
  7  9  1  0  0  0  0
  9 10  2  0  0  0  0
 10 11  1  0  0  0  0
 10 12  1  0  0  0  0
 11 72  1  0  0  0  0
 12 17  2  0  0  0  0
 12 13  1  0  0  0  0
 13 14  2  0  0  0  0
 13 48  1  0  0  0  0
 14 15  1  0  0  0  0
 14 21  1  0  0  0  0
 15 16  2  0  0  0  0
 15 49  1  0  0  0  0
 16 17  1  0  0  0  0
 16 50  1  0  0  0  0
 17 18  1  0  0  0  0
 18 19  1  0  0  0  0
 19 20  1  0  0  0  0
 19 51  1  0  0  0  0
 19 52  1  0  0  0  0
 20 53  1  0  0  0  0
 20 54  1  0  0  0  0
 20 55  1  0  0  0  0
 21 22  2  0  0  0  0
 21 23  2  0  0  0  0
 21 24  1  0  0  0  0
 24 25  1  0  0  0  0
 24 56  1  0  0  0  0
 25 26  1  0  0  0  0
 25 57  1  0  0  0  0
 25 58  1  0  0  0  0
 26 27  1  0  0  0  0
 26 59  1  0  0  0  0
 26 60  1  0  0  0  0
 27 28  1  0  0  0  0
 27 61  1  0  0  0  0
 28 33  2  0  0  0  0
 28 29  1  0  0  0  0
 29 30  2  0  0  0  0
 29 62  1  0  0  0  0
 30 31  1  0  0  0  0
 30 63  1  0  0  0  0
 31 32  2  0  0  0  0
 31 64  1  0  0  0  0
 32 37  1  0  0  0  0
 32 33  1  0  0  0  0
 33 34  1  0  0  0  0
 34 35  2  0  0  0  0
 34 65  1  0  0  0  0
 35 36  1  0  0  0  0
 35 66  1  0  0  0  0
 36 37  2  0  0  0  0
 36 67  1  0  0  0  0
 37 68  1  0  0  0  0
 38 39  1  0  0  0  0
 38 40  1  0  0  0  0
 40 69  1  0  0  0  0
 40 70  1  0  0  0  0
 40 71  1  0  0  0  0
M  END
$$$$
CHEMBL492795
  -OEChem-07121202283D

 71 75  0     0  0  0  0  0  0999 V2000
   -0.0187    1.5258    0.0104 C   0  0  0  0  0  0  0  0  0  0  0  0
    0.0021   -0.0041    0.0020 C   0  0  0  0  0  0  0  0  0  0  0  0
    0.7421   -0.5109    1.2415 C   0  0  0  0  0  0  0  0  0  0  0  0
    0.7625   -2.0177    1.2333 C   0  0  0  0  0  0  0  0  0  0  0  0
   -0.2174   -2.8570    1.8071 C   0  0  0  0  0  0  0  0  0  0  0  0
    0.1923   -4.1830    1.5712 C   0  0  0  0  0  0  0  0  0  0  0  0
   -0.6135   -5.2265    2.0444 C   0  0  0  0  0  0  0  0  0  0  0  0
   -0.2601   -6.5186    1.8419 O   0  5  0  0  0  0  0  0  0  0  0  0
   -1.7279   -4.9249    2.6943 N   0  0  0  0  0  0  0  0  0  0  0  0
   -2.0849   -3.6596    2.8995 C   0  0  0  0  0  0  0  0  0  0  0  0
   -1.3578   -2.6425    2.4719 N   0  0  0  0  0  0  0  0  0  0  0  0
   -3.3423   -3.3814    3.6330 C   0  0  0  0  0  0  0  0  0  0  0  0
   -3.7452   -2.0663    3.8582 C   0  0  0  0  0  0  0  0  0  0  0  0
   -4.9165   -1.8127    4.5415 C   0  0  0  0  0  0  0  0  0  0  0  0
   -5.6942   -2.8598    5.0050 C   0  0  0  0  0  0  0  0  0  0  0  0
   -5.3047   -4.1672    4.7876 C   0  0  0  0  0  0  0  0  0  0  0  0
   -4.1331   -4.4372    4.0974 C   0  0  0  0  0  0  0  0  0  0  0  0
   -3.7520   -5.7219    3.8780 O   0  0  0  0  0  0  0  0  0  0  0  0
   -4.6097   -6.7481    4.3815 C   0  0  0  0  0  0  0  0  0  0  0  0
   -4.0202   -8.1182    4.0407 C   0  0  0  0  0  0  0  0  0  0  0  0
   -5.4242   -0.1495    4.8259 S   0  0  0  0  0  0  0  0  0  0  0  0
   -6.2763   -0.1738    5.9628 O   0  0  0  0  0  0  0  0  0  0  0  0
   -4.2498    0.6486    4.7710 O   0  0  0  0  0  0  0  0  0  0  0  0
   -6.3641    0.3023    3.5395 N   0  0  0  0  0  0  0  0  0  0  0  0
   -7.6478   -0.3621    3.3012 C   0  0  0  0  0  0  0  0  0  0  0  0
   -8.4740    0.4640    2.3133 C   0  0  0  0  0  0  0  0  0  0  0  0
   -9.7578   -0.2003    2.0750 N   0  0  0  0  0  0  0  0  0  0  0  0
  -10.6854    0.3682    1.2048 C   0  0  0  0  0  0  0  0  0  0  0  0
  -10.3993    1.5531    0.5602 C   0  0  0  0  0  0  0  0  0  0  0  0
  -11.3187    2.1288   -0.3112 C   0  0  0  0  0  0  0  0  0  0  0  0
  -12.5234    1.5410   -0.5512 C   0  0  0  0  0  0  0  0  0  0  0  0
  -12.8541    0.3329    0.0856 C   0  0  0  0  0  0  0  0  0  0  0  0
  -11.9241   -0.2663    0.9706 C   0  0  0  0  0  0  0  0  0  0  0  0
  -12.2540   -1.4757    1.6020 C   0  0  0  0  0  0  0  0  0  0  0  0
  -13.4586   -2.0595    1.3527 C   0  0  0  0  0  0  0  0  0  0  0  0
  -14.3716   -1.4742    0.4777 C   0  0  0  0  0  0  0  0  0  0  0  0
  -14.0904   -0.2959   -0.1430 C   0  0  0  0  0  0  0  0  0  0  0  0
    1.3733   -4.1142    0.8819 N   0  0  0  0  0  0  0  0  0  0  0  0
    1.6847   -2.7617    0.6904 N   0  0  0  0  0  0  0  0  0  0  0  0
    2.1690   -5.2546    0.4209 C   0  0  0  0  0  0  0  0  0  0  0  0
    1.0039    1.9031    0.0027 H   0  0  0  0  0  0  0  0  0  0  0  0
   -0.5459    1.8868   -0.8726 H   0  0  0  0  0  0  0  0  0  0  0  0
   -0.5289    1.8773    0.9072 H   0  0  0  0  0  0  0  0  0  0  0  0
   -1.0205   -0.3814    0.0098 H   0  0  0  0  0  0  0  0  0  0  0  0
    0.5123   -0.3556   -0.8948 H   0  0  0  0  0  0  0  0  0  0  0  0
    1.7647   -0.1336    1.2338 H   0  0  0  0  0  0  0  0  0  0  0  0
    0.2319   -0.1594    2.1383 H   0  0  0  0  0  0  0  0  0  0  0  0
   -3.1409   -1.2466    3.4984 H   0  0  0  0  0  0  0  0  0  0  0  0
   -6.6098   -2.6537    5.5394 H   0  0  0  0  0  0  0  0  0  0  0  0
   -5.9157   -4.9798    5.1520 H   0  0  0  0  0  0  0  0  0  0  0  0
   -4.6980   -6.6494    5.4634 H   0  0  0  0  0  0  0  0  0  0  0  0
   -5.5956   -6.6533    3.9263 H   0  0  0  0  0  0  0  0  0  0  0  0
   -3.9320   -8.2168    2.9587 H   0  0  0  0  0  0  0  0  0  0  0  0
   -3.0344   -8.2130    4.4958 H   0  0  0  0  0  0  0  0  0  0  0  0
   -4.6745   -8.9009    4.4247 H   0  0  0  0  0  0  0  0  0  0  0  0
   -6.0646    1.0068    2.9438 H   0  0  0  0  0  0  0  0  0  0  0  0
   -7.4718   -1.3547    2.8867 H   0  0  0  0  0  0  0  0  0  0  0  0
   -8.1904   -0.4523    4.2422 H   0  0  0  0  0  0  0  0  0  0  0  0
   -8.6500    1.4567    2.7279 H   0  0  0  0  0  0  0  0  0  0  0  0
   -7.9314    0.5543    1.3723 H   0  0  0  0  0  0  0  0  0  0  0  0
   -9.9619   -1.0360    2.5231 H   0  0  0  0  0  0  0  0  0  0  0  0
   -9.4510    2.0399    0.7338 H   0  0  0  0  0  0  0  0  0  0  0  0
  -11.0730    3.0573   -0.8050 H   0  0  0  0  0  0  0  0  0  0  0  0
  -13.2244    2.0034   -1.2304 H   0  0  0  0  0  0  0  0  0  0  0  0
  -11.5558   -1.9410    2.2819 H   0  0  0  0  0  0  0  0  0  0  0  0
  -13.7099   -2.9901    1.8399 H   0  0  0  0  0  0  0  0  0  0  0  0
  -15.3200   -1.9579    0.2965 H   0  0  0  0  0  0  0  0  0  0  0  0
  -14.8080    0.1468   -0.8178 H   0  0  0  0  0  0  0  0  0  0  0  0
    1.8484   -5.5400   -0.5811 H   0  0  0  0  0  0  0  0  0  0  0  0
    3.2230   -4.9776    0.4001 H   0  0  0  0  0  0  0  0  0  0  0  0
    2.0275   -6.0949    1.1007 H   0  0  0  0  0  0  0  0  0  0  0  0
  1  2  1  0  0  0  0
  1 41  1  0  0  0  0
  1 42  1  0  0  0  0
  1 43  1  0  0  0  0
  2  3  1  0  0  0  0
  2 44  1  0  0  0  0
  2 45  1  0  0  0  0
  3  4  1  0  0  0  0
  3 46  1  0  0  0  0
  3 47  1  0  0  0  0
  4 39  2  0  0  0  0
  4  5  1  0  0  0  0
  5 11  2  0  0  0  0
  5  6  1  0  0  0  0
  6  7  2  0  0  0  0
  6 38  1  0  0  0  0
  7  8  1  0  0  0  0
  7  9  1  0  0  0  0
  9 10  2  0  0  0  0
 10 11  1  0  0  0  0
 10 12  1  0  0  0  0
 12 17  2  0  0  0  0
 12 13  1  0  0  0  0
 13 14  2  0  0  0  0
 13 48  1  0  0  0  0
 14 15  1  0  0  0  0
 14 21  1  0  0  0  0
 15 16  2  0  0  0  0
 15 49  1  0  0  0  0
 16 17  1  0  0  0  0
 16 50  1  0  0  0  0
 17 18  1  0  0  0  0
 18 19  1  0  0  0  0
 19 20  1  0  0  0  0
 19 51  1  0  0  0  0
 19 52  1  0  0  0  0
 20 53  1  0  0  0  0
 20 54  1  0  0  0  0
 20 55  1  0  0  0  0
 21 22  2  0  0  0  0
 21 23  2  0  0  0  0
 21 24  1  0  0  0  0
 24 25  1  0  0  0  0
 24 56  1  0  0  0  0
 25 26  1  0  0  0  0
 25 57  1  0  0  0  0
 25 58  1  0  0  0  0
 26 27  1  0  0  0  0
 26 59  1  0  0  0  0
 26 60  1  0  0  0  0
 27 28  1  0  0  0  0
 27 61  1  0  0  0  0
 28 33  2  0  0  0  0
 28 29  1  0  0  0  0
 29 30  2  0  0  0  0
 29 62  1  0  0  0  0
 30 31  1  0  0  0  0
 30 63  1  0  0  0  0
 31 32  2  0  0  0  0
 31 64  1  0  0  0  0
 32 37  1  0  0  0  0
 32 33  1  0  0  0  0
 33 34  1  0  0  0  0
 34 35  2  0  0  0  0
 34 65  1  0  0  0  0
 35 36  1  0  0  0  0
 35 66  1  0  0  0  0
 36 37  2  0  0  0  0
 36 67  1  0  0  0  0
 37 68  1  0  0  0  0
 38 39  1  0  0  0  0
 38 40  1  0  0  0  0
 40 69  1  0  0  0  0
 40 70  1  0  0  0  0
 40 71  1  0  0  0  0
M  CHG  1   8  -1
M  END
$$$$
CHEMBL494817
  -OEChem-07121202283D

 66 69  0     0  0  0  0  0  0999 V2000
   -0.0187    1.5258    0.0104 C   0  0  0  0  0  0  0  0  0  0  0  0
    0.0021   -0.0041    0.0020 C   0  0  0  0  0  0  0  0  0  0  0  0
    0.7182   -0.4975   -1.2568 C   0  0  0  0  0  0  0  0  0  0  0  0
    0.7386   -2.0043   -1.2651 C   0  0  0  0  0  0  0  0  0  0  0  0
    1.7436   -2.8145   -0.7017 C   0  0  0  0  0  0  0  0  0  0  0  0
    1.3716   -4.1454   -0.9309 C   0  0  0  0  0  0  0  0  0  0  0  0
    2.2155   -5.1793   -0.4631 C   0  0  0  0  0  0  0  0  0  0  0  0
    1.9272   -6.3498   -0.6430 O   0  0  0  0  0  0  0  0  0  0  0  0
    3.3497   -4.8379    0.1877 N   0  0  0  0  0  0  0  0  0  0  0  0
    3.9439   -5.5300    0.5176 H   0  0  0  0  0  0  0  0  0  0  0  0
    3.6639   -3.5203    0.3833 C   0  0  0  0  0  0  0  0  0  0  0  0
    2.8908   -2.5515   -0.0437 N   0  0  0  0  0  0  0  0  0  0  0  0
    4.9101   -3.1798    1.0980 C   0  0  0  0  0  0  0  0  0  0  0  0
    5.7536   -4.1922    1.5597 C   0  0  0  0  0  0  0  0  0  0  0  0
    6.9158   -3.8678    2.2265 C   0  0  0  0  0  0  0  0  0  0  0  0
    7.2508   -2.5412    2.4411 C   0  0  0  0  0  0  0  0  0  0  0  0
    6.4250   -1.5305    1.9894 C   0  0  0  0  0  0  0  0  0  0  0  0
    5.2556   -1.8391    1.3116 C   0  0  0  0  0  0  0  0  0  0  0  0
    4.4461   -0.8467    0.8623 O   0  0  0  0  0  0  0  0  0  0  0  0
    4.8632    0.4961    1.1168 C   0  0  0  0  0  0  0  0  0  0  0  0
    3.8319    1.4685    0.5407 C   0  0  0  0  0  0  0  0  0  0  0  0
    7.9793   -5.1464    2.8085 S   0  0  0  0  0  0  0  0  0  0  0  0
    8.7312   -4.5930    3.8798 O   0  0  0  0  0  0  0  0  0  0  0  0
    7.1730   -6.3063    2.9631 O   0  0  0  0  0  0  0  0  0  0  0  0
    9.0568   -5.4772    1.5953 N   0  0  0  0  0  0  0  0  0  0  0  0
   10.0219   -4.4585    1.1749 C   0  0  0  0  0  0  0  0  0  0  0  0
   11.1191   -5.1122    0.3325 C   0  0  0  0  0  0  0  0  0  0  0  0
   12.0843   -4.0935   -0.0880 N   0  0  0  0  0  0  0  0  0  0  0  0
   13.1827   -4.4534   -0.8721 C   0  0  0  0  0  0  0  0  0  0  0  0
   13.3584   -5.7760   -1.2589 C   0  0  0  0  0  0  0  0  0  0  0  0
   14.4453   -6.1284   -2.0346 C   0  0  0  0  0  0  0  0  0  0  0  0
   15.3585   -5.1665   -2.4258 C   0  0  0  0  0  0  0  0  0  0  0  0
   15.1867   -3.8490   -2.0425 C   0  0  0  0  0  0  0  0  0  0  0  0
   14.0989   -3.4887   -1.2716 C   0  0  0  0  0  0  0  0  0  0  0  0
    0.1842   -4.1164   -1.6082 N   0  0  0  0  0  0  0  0  0  0  0  0
   -0.1751   -2.7746   -1.7907 N   0  0  0  0  0  0  0  0  0  0  0  0
   -0.5794   -5.2824   -2.0596 C   0  0  0  0  0  0  0  0  0  0  0  0
    1.0039    1.9031    0.0027 H   0  0  0  0  0  0  0  0  0  0  0  0
   -0.5459    1.8868   -0.8726 H   0  0  0  0  0  0  0  0  0  0  0  0
   -0.5289    1.8773    0.9072 H   0  0  0  0  0  0  0  0  0  0  0  0
    0.5293   -0.3651    0.8851 H   0  0  0  0  0  0  0  0  0  0  0  0
   -1.0205   -0.3814    0.0098 H   0  0  0  0  0  0  0  0  0  0  0  0
    0.1910   -0.1364   -2.1398 H   0  0  0  0  0  0  0  0  0  0  0  0
    1.7408   -0.1202   -1.2645 H   0  0  0  0  0  0  0  0  0  0  0  0
    5.4957   -5.2279    1.3950 H   0  0  0  0  0  0  0  0  0  0  0  0
    8.1628   -2.2958    2.9650 H   0  0  0  0  0  0  0  0  0  0  0  0
    6.6926   -0.4983    2.1608 H   0  0  0  0  0  0  0  0  0  0  0  0
    4.9489    0.6524    2.1922 H   0  0  0  0  0  0  0  0  0  0  0  0
    5.8306    0.6715    0.6460 H   0  0  0  0  0  0  0  0  0  0  0  0
    3.7463    1.3123   -0.5346 H   0  0  0  0  0  0  0  0  0  0  0  0
    2.8646    1.2931    1.0115 H   0  0  0  0  0  0  0  0  0  0  0  0
    4.1502    2.4927    0.7349 H   0  0  0  0  0  0  0  0  0  0  0  0
    9.0488   -6.3456    1.1631 H   0  0  0  0  0  0  0  0  0  0  0  0
    9.5130   -3.6985    0.5820 H   0  0  0  0  0  0  0  0  0  0  0  0
   10.4673   -3.9947    2.0550 H   0  0  0  0  0  0  0  0  0  0  0  0
   11.6281   -5.8722    0.9253 H   0  0  0  0  0  0  0  0  0  0  0  0
   10.6737   -5.5760   -0.5477 H   0  0  0  0  0  0  0  0  0  0  0  0
   11.9606   -3.1690    0.1782 H   0  0  0  0  0  0  0  0  0  0  0  0
   12.6459   -6.5279   -0.9531 H   0  0  0  0  0  0  0  0  0  0  0  0
   14.5824   -7.1565   -2.3357 H   0  0  0  0  0  0  0  0  0  0  0  0
   16.2080   -5.4449   -3.0318 H   0  0  0  0  0  0  0  0  0  0  0  0
   15.9017   -3.1002   -2.3497 H   0  0  0  0  0  0  0  0  0  0  0  0
   13.9628   -2.4588   -0.9763 H   0  0  0  0  0  0  0  0  0  0  0  0
   -1.2781   -5.5834   -1.2791 H   0  0  0  0  0  0  0  0  0  0  0  0
   -1.1323   -5.0268   -2.9634 H   0  0  0  0  0  0  0  0  0  0  0  0
    0.1042   -6.1043   -2.2721 H   0  0  0  0  0  0  0  0  0  0  0  0
  1  2  1  0  0  0  0
  1 38  1  0  0  0  0
  1 39  1  0  0  0  0
  1 40  1  0  0  0  0
  2  3  1  0  0  0  0
  2 41  1  0  0  0  0
  2 42  1  0  0  0  0
  3  4  1  0  0  0  0
  3 43  1  0  0  0  0
  3 44  1  0  0  0  0
  4 36  2  0  0  0  0
  4  5  1  0  0  0  0
  5 12  1  0  0  0  0
  5  6  2  0  0  0  0
  6  7  1  0  0  0  0
  6 35  1  0  0  0  0
  7  8  2  0  0  0  0
  7  9  1  0  0  0  0
  9 10  1  0  0  0  0
  9 11  1  0  0  0  0
 11 12  2  0  0  0  0
 11 13  1  0  0  0  0
 13 18  2  0  0  0  0
 13 14  1  0  0  0  0
 14 15  2  0  0  0  0
 14 45  1  0  0  0  0
 15 16  1  0  0  0  0
 15 22  1  0  0  0  0
 16 17  2  0  0  0  0
 16 46  1  0  0  0  0
 17 18  1  0  0  0  0
 17 47  1  0  0  0  0
 18 19  1  0  0  0  0
 19 20  1  0  0  0  0
 20 21  1  0  0  0  0
 20 48  1  0  0  0  0
 20 49  1  0  0  0  0
 21 50  1  0  0  0  0
 21 51  1  0  0  0  0
 21 52  1  0  0  0  0
 22 23  2  0  0  0  0
 22 24  2  0  0  0  0
 22 25  1  0  0  0  0
 25 26  1  0  0  0  0
 25 53  1  0  0  0  0
 26 27  1  0  0  0  0
 26 54  1  0  0  0  0
 26 55  1  0  0  0  0
 27 28  1  0  0  0  0
 27 56  1  0  0  0  0
 27 57  1  0  0  0  0
 28 29  1  0  0  0  0
 28 58  1  0  0  0  0
 29 34  2  0  0  0  0
 29 30  1  0  0  0  0
 30 31  2  0  0  0  0
 30 59  1  0  0  0  0
 31 32  1  0  0  0  0
 31 60  1  0  0  0  0
 32 33  2  0  0  0  0
 32 61  1  0  0  0  0
 33 34  1  0  0  0  0
 33 62  1  0  0  0  0
 34 63  1  0  0  0  0
 35 36  1  0  0  0  0
 35 37  1  0  0  0  0
 37 64  1  0  0  0  0
 37 65  1  0  0  0  0
 37 66  1  0  0  0  0
M  END
$$$$
CHEMBL494817
  -OEChem-07121202283D

 66 69  0     0  0  0  0  0  0999 V2000
   -0.0187    1.5258    0.0104 C   0  0  0  0  0  0  0  0  0  0  0  0
    0.0021   -0.0041    0.0020 C   0  0  0  0  0  0  0  0  0  0  0  0
   -1.4333   -0.5336    0.0129 C   0  0  0  0  0  0  0  0  0  0  0  0
   -1.4129   -2.0405    0.0046 C   0  0  0  0  0  0  0  0  0  0  0  0
   -1.4071   -2.8493   -1.1371 C   0  0  0  0  0  0  0  0  0  0  0  0
   -1.3871   -4.1737   -0.7055 C   0  0  0  0  0  0  0  0  0  0  0  0
   -1.3778   -5.2332   -1.7158 C   0  0  0  0  0  0  0  0  0  0  0  0
   -1.3607   -6.4084   -1.3854 O   0  0  0  0  0  0  0  0  0  0  0  0
   -1.3888   -4.8868   -3.0129 N   0  0  0  0  0  0  0  0  0  0  0  0
   -1.4076   -3.6251   -3.3867 C   0  0  0  0  0  0  0  0  0  0  0  0
   -1.4171   -2.5975   -2.4964 N   0  0  0  0  0  0  0  0  0  0  0  0
   -1.4188   -3.3135   -4.8285 C   0  0  0  0  0  0  0  0  0  0  0  0
   -1.4330   -1.9848   -5.2600 C   0  0  0  0  0  0  0  0  0  0  0  0
   -1.4429   -1.7003   -6.6083 C   0  0  0  0  0  0  0  0  0  0  0  0
   -1.4394   -2.7264   -7.5391 C   0  0  0  0  0  0  0  0  0  0  0  0
   -1.4259   -4.0440   -7.1262 C   0  0  0  0  0  0  0  0  0  0  0  0
   -1.4095   -4.3485   -5.7734 C   0  0  0  0  0  0  0  0  0  0  0  0
   -1.3901   -5.6427   -5.3664 O   0  0  0  0  0  0  0  0  0  0  0  0
   -1.3816   -6.6435   -6.3863 C   0  0  0  0  0  0  0  0  0  0  0  0
   -1.3598   -8.0302   -5.7401 C   0  0  0  0  0  0  0  0  0  0  0  0
   -1.4608   -0.0240   -7.1509 S   0  0  0  0  0  0  0  0  0  0  0  0
   -2.0188   -0.0261   -8.4578 O   0  0  0  0  0  0  0  0  0  0  0  0
   -2.0126    0.7410   -6.0882 O   0  0  0  0  0  0  0  0  0  0  0  0
    0.1161    0.4558   -7.3104 N   0  0  0  0  0  0  0  0  0  0  0  0
    0.9745   -0.1720   -8.3181 C   0  0  0  0  0  0  0  0  0  0  0  0
    2.2303    0.6784   -8.5196 C   0  0  0  0  0  0  0  0  0  0  0  0
    3.0886    0.0506   -9.5273 N   0  0  0  0  0  0  0  0  0  0  0  0
    4.3003    0.6477   -9.8825 C   0  0  0  0  0  0  0  0  0  0  0  0
    4.6958    1.8338   -9.2771 C   0  0  0  0  0  0  0  0  0  0  0  0
    5.8947    2.4212   -9.6303 C   0  0  0  0  0  0  0  0  0  0  0  0
    6.7010    1.8303  -10.5858 C   0  0  0  0  0  0  0  0  0  0  0  0
    6.3104    0.6495  -11.1904 C   0  0  0  0  0  0  0  0  0  0  0  0
    5.1154    0.0537  -10.8377 C   0  0  0  0  0  0  0  0  0  0  0  0
   -1.3812   -4.1503    0.6589 N   0  0  0  0  0  0  0  0  0  0  0  0
   -1.3919   -2.8081    1.0635 N   0  0  0  0  0  0  0  0  0  0  0  0
   -1.3621   -5.3186    1.5427 C   0  0  0  0  0  0  0  0  0  0  0  0
    1.0039    1.9031    0.0027 H   0  0  0  0  0  0  0  0  0  0  0  0
   -0.5459    1.8868   -0.8726 H   0  0  0  0  0  0  0  0  0  0  0  0
   -0.5289    1.8773    0.9072 H   0  0  0  0  0  0  0  0  0  0  0  0
    0.5123   -0.3556   -0.8948 H   0  0  0  0  0  0  0  0  0  0  0  0
    0.5293   -0.3651    0.8851 H   0  0  0  0  0  0  0  0  0  0  0  0
   -1.9435   -0.1821    0.9097 H   0  0  0  0  0  0  0  0  0  0  0  0
   -1.9605   -0.1726   -0.8702 H   0  0  0  0  0  0  0  0  0  0  0  0
   -1.4365   -1.1817   -4.5379 H   0  0  0  0  0  0  0  0  0  0  0  0
   -1.4477   -2.4944   -8.5939 H   0  0  0  0  0  0  0  0  0  0  0  0
   -1.4240   -4.8384   -7.8579 H   0  0  0  0  0  0  0  0  0  0  0  0
   -2.2760   -6.5432   -7.0012 H   0  0  0  0  0  0  0  0  0  0  0  0
   -0.4962   -6.5193   -7.0099 H   0  0  0  0  0  0  0  0  0  0  0  0
   -0.4655   -8.1304   -5.1252 H   0  0  0  0  0  0  0  0  0  0  0  0
   -2.2452   -8.1544   -5.1166 H   0  0  0  0  0  0  0  0  0  0  0  0
   -1.3533   -8.7936   -6.5181 H   0  0  0  0  0  0  0  0  0  0  0  0
    0.4715    1.1525   -6.7367 H   0  0  0  0  0  0  0  0  0  0  0  0
    1.2606   -1.1686   -7.9817 H   0  0  0  0  0  0  0  0  0  0  0  0
    0.4323   -0.2484   -9.2606 H   0  0  0  0  0  0  0  0  0  0  0  0
    1.9442    1.6749   -8.8560 H   0  0  0  0  0  0  0  0  0  0  0  0
    2.7725    0.7548   -7.5771 H   0  0  0  0  0  0  0  0  0  0  0  0
    2.8155   -0.7798   -9.9478 H   0  0  0  0  0  0  0  0  0  0  0  0
    4.0662    2.2962   -8.5313 H   0  0  0  0  0  0  0  0  0  0  0  0
    6.2027    3.3434   -9.1600 H   0  0  0  0  0  0  0  0  0  0  0  0
    7.6378    2.2922  -10.8607 H   0  0  0  0  0  0  0  0  0  0  0  0
    6.9425    0.1906  -11.9362 H   0  0  0  0  0  0  0  0  0  0  0  0
    4.8131   -0.8708  -11.3071 H   0  0  0  0  0  0  0  0  0  0  0  0
   -0.3297   -5.5950    1.7572 H   0  0  0  0  0  0  0  0  0  0  0  0
   -1.8748   -5.0782    2.4740 H   0  0  0  0  0  0  0  0  0  0  0  0
   -1.8673   -6.1519    1.0544 H   0  0  0  0  0  0  0  0  0  0  0  0
   -1.4310   -1.6821   -2.8169 H   0  0  0  0  0  0  0  0  0  0  0  0
  1  2  1  0  0  0  0
  1 37  1  0  0  0  0
  1 38  1  0  0  0  0
  1 39  1  0  0  0  0
  2  3  1  0  0  0  0
  2 40  1  0  0  0  0
  2 41  1  0  0  0  0
  3  4  1  0  0  0  0
  3 42  1  0  0  0  0
  3 43  1  0  0  0  0
  4 35  2  0  0  0  0
  4  5  1  0  0  0  0
  5 11  1  0  0  0  0
  5  6  2  0  0  0  0
  6  7  1  0  0  0  0
  6 34  1  0  0  0  0
  7  8  2  0  0  0  0
  7  9  1  0  0  0  0
  9 10  2  0  0  0  0
 10 11  1  0  0  0  0
 10 12  1  0  0  0  0
 11 66  1  0  0  0  0
 12 17  2  0  0  0  0
 12 13  1  0  0  0  0
 13 14  2  0  0  0  0
 13 44  1  0  0  0  0
 14 15  1  0  0  0  0
 14 21  1  0  0  0  0
 15 16  2  0  0  0  0
 15 45  1  0  0  0  0
 16 17  1  0  0  0  0
 16 46  1  0  0  0  0
 17 18  1  0  0  0  0
 18 19  1  0  0  0  0
 19 20  1  0  0  0  0
 19 47  1  0  0  0  0
 19 48  1  0  0  0  0
 20 49  1  0  0  0  0
 20 50  1  0  0  0  0
 20 51  1  0  0  0  0
 21 22  2  0  0  0  0
 21 23  2  0  0  0  0
 21 24  1  0  0  0  0
 24 25  1  0  0  0  0
 24 52  1  0  0  0  0
 25 26  1  0  0  0  0
 25 53  1  0  0  0  0
 25 54  1  0  0  0  0
 26 27  1  0  0  0  0
 26 55  1  0  0  0  0
 26 56  1  0  0  0  0
 27 28  1  0  0  0  0
 27 57  1  0  0  0  0
 28 33  2  0  0  0  0
 28 29  1  0  0  0  0
 29 30  2  0  0  0  0
 29 58  1  0  0  0  0
 30 31  1  0  0  0  0
 30 59  1  0  0  0  0
 31 32  2  0  0  0  0
 31 60  1  0  0  0  0
 32 33  1  0  0  0  0
 32 61  1  0  0  0  0
 33 62  1  0  0  0  0
 34 35  1  0  0  0  0
 34 36  1  0  0  0  0
 36 63  1  0  0  0  0
 36 64  1  0  0  0  0
 36 65  1  0  0  0  0
M  END
$$$$
CHEMBL494817
  -OEChem-07121202283D

 65 68  0     0  0  0  0  0  0999 V2000
   -0.0187    1.5258    0.0104 C   0  0  0  0  0  0  0  0  0  0  0  0
    0.0021   -0.0041    0.0020 C   0  0  0  0  0  0  0  0  0  0  0  0
   -1.4333   -0.5336    0.0129 C   0  0  0  0  0  0  0  0  0  0  0  0
   -1.4129   -2.0405    0.0046 C   0  0  0  0  0  0  0  0  0  0  0  0
   -1.4070   -2.8569   -1.1475 C   0  0  0  0  0  0  0  0  0  0  0  0
   -1.3869   -4.1920   -0.7014 C   0  0  0  0  0  0  0  0  0  0  0  0
   -1.3777   -5.2165   -1.6565 C   0  0  0  0  0  0  0  0  0  0  0  0
   -1.3588   -6.5164   -1.2751 O   0  5  0  0  0  0  0  0  0  0  0  0
   -1.3884   -4.8893   -2.9402 N   0  0  0  0  0  0  0  0  0  0  0  0
   -1.4074   -3.6162   -3.3266 C   0  0  0  0  0  0  0  0  0  0  0  0
   -1.4163   -2.6161   -2.4630 N   0  0  0  0  0  0  0  0  0  0  0  0
   -1.4186   -3.3091   -4.7764 C   0  0  0  0  0  0  0  0  0  0  0  0
   -1.4328   -1.9850   -5.2116 C   0  0  0  0  0  0  0  0  0  0  0  0
   -1.4432   -1.7045   -6.5622 C   0  0  0  0  0  0  0  0  0  0  0  0
   -1.4396   -2.7334   -7.4883 C   0  0  0  0  0  0  0  0  0  0  0  0
   -1.4256   -4.0494   -7.0685 C   0  0  0  0  0  0  0  0  0  0  0  0
   -1.4092   -4.3463   -5.7145 C   0  0  0  0  0  0  0  0  0  0  0  0
   -1.3897   -5.6394   -5.3005 O   0  0  0  0  0  0  0  0  0  0  0  0
   -1.3811   -6.6454   -6.3153 C   0  0  0  0  0  0  0  0  0  0  0  0
   -1.3591   -8.0288   -5.6620 C   0  0  0  0  0  0  0  0  0  0  0  0
   -1.4617   -0.0302   -7.1108 S   0  0  0  0  0  0  0  0  0  0  0  0
   -2.0201   -0.0370   -8.4174 O   0  0  0  0  0  0  0  0  0  0  0  0
   -2.0135    0.7385   -6.0505 O   0  0  0  0  0  0  0  0  0  0  0  0
    0.1150    0.4496   -7.2724 N   0  0  0  0  0  0  0  0  0  0  0  0
    0.9733   -0.1815   -8.2780 C   0  0  0  0  0  0  0  0  0  0  0  0
    2.2288    0.6686   -8.4829 C   0  0  0  0  0  0  0  0  0  0  0  0
    3.0870    0.0375   -9.4886 N   0  0  0  0  0  0  0  0  0  0  0  0
    4.2984    0.6337   -9.8462 C   0  0  0  0  0  0  0  0  0  0  0  0
    4.6937    1.8220   -9.2451 C   0  0  0  0  0  0  0  0  0  0  0  0
    5.8923    2.4086   -9.6007 C   0  0  0  0  0  0  0  0  0  0  0  0
    6.6985    1.8146  -10.5543 C   0  0  0  0  0  0  0  0  0  0  0  0
    6.3081    0.6316  -11.1547 C   0  0  0  0  0  0  0  0  0  0  0  0
    5.1134    0.0367  -10.7996 C   0  0  0  0  0  0  0  0  0  0  0  0
   -1.3812   -4.1504    0.6672 N   0  0  0  0  0  0  0  0  0  0  0  0
   -1.3920   -2.8055    1.0596 N   0  0  0  0  0  0  0  0  0  0  0  0
   -1.3618   -5.3088    1.5638 C   0  0  0  0  0  0  0  0  0  0  0  0
    1.0039    1.9031    0.0027 H   0  0  0  0  0  0  0  0  0  0  0  0
   -0.5459    1.8868   -0.8726 H   0  0  0  0  0  0  0  0  0  0  0  0
   -0.5289    1.8773    0.9072 H   0  0  0  0  0  0  0  0  0  0  0  0
    0.5123   -0.3556   -0.8948 H   0  0  0  0  0  0  0  0  0  0  0  0
    0.5293   -0.3651    0.8851 H   0  0  0  0  0  0  0  0  0  0  0  0
   -1.9435   -0.1821    0.9097 H   0  0  0  0  0  0  0  0  0  0  0  0
   -1.9605   -0.1726   -0.8702 H   0  0  0  0  0  0  0  0  0  0  0  0
   -1.4360   -1.1795   -4.4922 H   0  0  0  0  0  0  0  0  0  0  0  0
   -1.4482   -2.5062   -8.5441 H   0  0  0  0  0  0  0  0  0  0  0  0
   -1.4233   -4.8477   -7.7959 H   0  0  0  0  0  0  0  0  0  0  0  0
   -2.2755   -6.5484   -6.9307 H   0  0  0  0  0  0  0  0  0  0  0  0
   -0.4957   -6.5243   -6.9395 H   0  0  0  0  0  0  0  0  0  0  0  0
   -0.4647   -8.1258   -5.0466 H   0  0  0  0  0  0  0  0  0  0  0  0
   -2.2445   -8.1499   -5.0378 H   0  0  0  0  0  0  0  0  0  0  0  0
   -1.3526   -8.7961   -6.4360 H   0  0  0  0  0  0  0  0  0  0  0  0
    0.4703    1.1485   -6.7012 H   0  0  0  0  0  0  0  0  0  0  0  0
    1.2598   -1.1767   -7.9382 H   0  0  0  0  0  0  0  0  0  0  0  0
    0.4308   -0.2614   -9.2201 H   0  0  0  0  0  0  0  0  0  0  0  0
    1.9422    1.6638   -8.8227 H   0  0  0  0  0  0  0  0  0  0  0  0
    2.7712    0.7485   -7.5408 H   0  0  0  0  0  0  0  0  0  0  0  0
    2.8140   -0.7944   -9.9061 H   0  0  0  0  0  0  0  0  0  0  0  0
    4.0641    2.2869   -8.5008 H   0  0  0  0  0  0  0  0  0  0  0  0
    6.2002    3.3325   -9.1338 H   0  0  0  0  0  0  0  0  0  0  0  0
    7.6351    2.2758  -10.8311 H   0  0  0  0  0  0  0  0  0  0  0  0
    6.9402    0.1703  -11.8991 H   0  0  0  0  0  0  0  0  0  0  0  0
    4.8112   -0.8896  -11.2656 H   0  0  0  0  0  0  0  0  0  0  0  0
   -0.3294   -5.5825    1.7815 H   0  0  0  0  0  0  0  0  0  0  0  0
   -1.8748   -5.0582    2.4923 H   0  0  0  0  0  0  0  0  0  0  0  0
   -1.8667   -6.1476    1.0847 H   0  0  0  0  0  0  0  0  0  0  0  0
  1  2  1  0  0  0  0
  1 37  1  0  0  0  0
  1 38  1  0  0  0  0
  1 39  1  0  0  0  0
  2  3  1  0  0  0  0
  2 40  1  0  0  0  0
  2 41  1  0  0  0  0
  3  4  1  0  0  0  0
  3 42  1  0  0  0  0
  3 43  1  0  0  0  0
  4 35  2  0  0  0  0
  4  5  1  0  0  0  0
  5 11  2  0  0  0  0
  5  6  1  0  0  0  0
  6  7  2  0  0  0  0
  6 34  1  0  0  0  0
  7  8  1  0  0  0  0
  7  9  1  0  0  0  0
  9 10  2  0  0  0  0
 10 11  1  0  0  0  0
 10 12  1  0  0  0  0
 12 17  2  0  0  0  0
 12 13  1  0  0  0  0
 13 14  2  0  0  0  0
 13 44  1  0  0  0  0
 14 15  1  0  0  0  0
 14 21  1  0  0  0  0
 15 16  2  0  0  0  0
 15 45  1  0  0  0  0
 16 17  1  0  0  0  0
 16 46  1  0  0  0  0
 17 18  1  0  0  0  0
 18 19  1  0  0  0  0
 19 20  1  0  0  0  0
 19 47  1  0  0  0  0
 19 48  1  0  0  0  0
 20 49  1  0  0  0  0
 20 50  1  0  0  0  0
 20 51  1  0  0  0  0
 21 22  2  0  0  0  0
 21 23  2  0  0  0  0
 21 24  1  0  0  0  0
 24 25  1  0  0  0  0
 24 52  1  0  0  0  0
 25 26  1  0  0  0  0
 25 53  1  0  0  0  0
 25 54  1  0  0  0  0
 26 27  1  0  0  0  0
 26 55  1  0  0  0  0
 26 56  1  0  0  0  0
 27 28  1  0  0  0  0
 27 57  1  0  0  0  0
 28 33  2  0  0  0  0
 28 29  1  0  0  0  0
 29 30  2  0  0  0  0
 29 58  1  0  0  0  0
 30 31  1  0  0  0  0
 30 59  1  0  0  0  0
 31 32  2  0  0  0  0
 31 60  1  0  0  0  0
 32 33  1  0  0  0  0
 32 61  1  0  0  0  0
 33 62  1  0  0  0  0
 34 35  1  0  0  0  0
 34 36  1  0  0  0  0
 36 63  1  0  0  0  0
 36 64  1  0  0  0  0
 36 65  1  0  0  0  0
M  CHG  1   8  -1
M  END
$$$$
CHEMBL70471
  -OEChem-07121202283D

 54 59  0     1  0  0  0  0  0999 V2000
   -0.0178    1.4608    0.0101 C   0  0  0  0  0  0  0  0  0  0  0  0
    0.0021   -0.0041    0.0020 N   0  0  0  0  0  0  0  0  0  0  0  0
    0.0054   -0.6573   -1.1733 C   0  0  0  0  0  0  0  0  0  0  0  0
   -0.0091   -0.0326   -2.2187 O   0  0  0  0  0  0  0  0  0  0  0  0
    0.0253   -2.0678   -1.1930 C   0  0  0  0  0  0  0  0  0  0  0  0
    0.0428   -2.7648    0.0060 C   0  0  0  0  0  0  0  0  0  0  0  0
    0.0601   -4.0673   -0.2928 N   0  0  0  0  0  0  0  0  0  0  0  0
    0.0542   -4.2242   -1.5919 C   0  0  0  0  0  0  0  0  0  0  0  0
    0.0329   -3.0197   -2.1947 N   0  0  0  0  0  0  0  0  0  0  0  0
    0.0195   -2.7671   -3.6376 C   0  0  0  0  0  0  0  0  0  0  0  0
    1.4355   -2.6597   -4.1420 C   0  0  0  0  0  0  0  0  0  0  0  0
    2.0711   -1.4323   -4.1615 C   0  0  0  0  0  0  0  0  0  0  0  0
    3.3700   -1.3338   -4.6241 C   0  0  0  0  0  0  0  0  0  0  0  0
    4.0334   -2.4628   -5.0669 C   0  0  0  0  0  0  0  0  0  0  0  0
    3.3982   -3.6904   -5.0466 C   0  0  0  0  0  0  0  0  0  0  0  0
    2.1007   -3.7896   -4.5799 C   0  0  0  0  0  0  0  0  0  0  0  0
    0.0695   -5.5513   -2.3056 C   0  0  0  0  0  0  0  0  0  0  0  0
   -1.3677   -6.0217   -2.5386 C   0  0  0  0  0  0  0  0  0  0  0  0
   -1.8097   -7.3123   -1.8458 C   0  0  0  0  0  0  0  0  0  0  0  0
   -1.5692   -7.2988   -3.3567 C   0  0  0  0  0  0  0  0  0  0  0  0
    0.0390   -2.0621    1.2023 N   0  0  0  0  0  0  0  0  0  0  0  0
    0.0228   -0.6909    1.2067 C   0  0  0  0  0  0  0  0  0  0  0  0
    0.0232   -0.1825    2.4083 N   0  3  0  0  0  0  0  0  0  0  0  0
    0.0515   -1.2406    3.4216 C   0  0  1  0  0  0  0  0  0  0  0  0
   -0.8088   -1.1891    4.0888 H   0  0  0  0  0  0  0  0  0  0  0  0
    0.0538   -2.5462    2.5925 C   0  0  2  0  0  0  0  0  0  0  0  0
   -0.7960   -3.1915    2.8149 H   0  0  0  0  0  0  0  0  0  0  0  0
    1.4070   -3.2270    2.8788 C   0  0  0  0  0  0  0  0  0  0  0  0
    2.3282   -2.0707    3.3395 C   0  0  0  0  0  0  0  0  0  0  0  0
    1.3841   -1.1747    4.1950 C   0  0  0  0  0  0  0  0  0  0  0  0
    1.0048    1.8381    0.0023 H   0  0  0  0  0  0  0  0  0  0  0  0
   -0.5450    1.8219   -0.8730 H   0  0  0  0  0  0  0  0  0  0  0  0
   -0.5280    1.8123    0.9069 H   0  0  0  0  0  0  0  0  0  0  0  0
   -0.4859   -3.5884   -4.1456 H   0  0  0  0  0  0  0  0  0  0  0  0
   -0.5094   -1.8353   -3.8385 H   0  0  0  0  0  0  0  0  0  0  0  0
    1.5527   -0.5502   -3.8155 H   0  0  0  0  0  0  0  0  0  0  0  0
    3.8663   -0.3747   -4.6400 H   0  0  0  0  0  0  0  0  0  0  0  0
    5.0480   -2.3858   -5.4290 H   0  0  0  0  0  0  0  0  0  0  0  0
    3.9164   -4.5724   -5.3929 H   0  0  0  0  0  0  0  0  0  0  0  0
    1.6057   -4.7492   -4.5606 H   0  0  0  0  0  0  0  0  0  0  0  0
    0.5761   -5.4424   -3.2646 H   0  0  0  0  0  0  0  0  0  0  0  0
    0.5978   -6.2852   -1.6970 H   0  0  0  0  0  0  0  0  0  0  0  0
   -2.1091   -5.2305   -2.6499 H   0  0  0  0  0  0  0  0  0  0  0  0
   -1.0766   -7.8262   -1.2240 H   0  0  0  0  0  0  0  0  0  0  0  0
   -2.8421   -7.3702   -1.5010 H   0  0  0  0  0  0  0  0  0  0  0  0
   -2.4434   -7.3479   -4.0059 H   0  0  0  0  0  0  0  0  0  0  0  0
   -0.6779   -7.8039   -3.7290 H   0  0  0  0  0  0  0  0  0  0  0  0
    1.3006   -3.9681    3.6710 H   0  0  0  0  0  0  0  0  0  0  0  0
    1.7999   -3.6895    1.9734 H   0  0  0  0  0  0  0  0  0  0  0  0
    3.1475   -2.4495    3.9506 H   0  0  0  0  0  0  0  0  0  0  0  0
    2.7088   -1.5152    2.4825 H   0  0  0  0  0  0  0  0  0  0  0  0
    1.7428   -0.1468    4.2495 H   0  0  0  0  0  0  0  0  0  0  0  0
    1.2656   -1.5917    5.1951 H   0  0  0  0  0  0  0  0  0  0  0  0
    0.0072    0.7673    2.6043 H   0  0  0  0  0  0  0  0  0  0  0  0
  1  2  1  0  0  0  0
  1 31  1  0  0  0  0
  1 32  1  0  0  0  0
  1 33  1  0  0  0  0
  2 22  1  0  0  0  0
  2  3  1  0  0  0  0
  3  4  2  0  0  0  0
  3  5  1  0  0  0  0
  5  9  1  0  0  0  0
  5  6  2  0  0  0  0
  6  7  1  0  0  0  0
  6 21  1  0  0  0  0
  7  8  2  0  0  0  0
  8  9  1  0  0  0  0
  8 17  1  0  0  0  0
  9 10  1  0  0  0  0
 10 11  1  0  0  0  0
 10 34  1  0  0  0  0
 10 35  1  0  0  0  0
 11 16  2  0  0  0  0
 11 12  1  0  0  0  0
 12 13  2  0  0  0  0
 12 36  1  0  0  0  0
 13 14  1  0  0  0  0
 13 37  1  0  0  0  0
 14 15  2  0  0  0  0
 14 38  1  0  0  0  0
 15 16  1  0  0  0  0
 15 39  1  0  0  0  0
 16 40  1  0  0  0  0
 17 18  1  0  0  0  0
 17 41  1  0  0  0  0
 17 42  1  0  0  0  0
 18 20  1  0  0  0  0
 18 19  1  0  0  0  0
 18 43  1  0  0  0  0
 19 20  1  0  0  0  0
 19 44  1  0  0  0  0
 19 45  1  0  0  0  0
 20 46  1  0  0  0  0
 20 47  1  0  0  0  0
 21 26  1  0  0  0  0
 21 22  1  0  0  0  0
 22 23  2  0  0  0  0
 23 24  1  0  0  0  0
 23 54  1  0  0  0  0
 24 25  1  0  0  0  0
 24 30  1  0  0  0  0
 24 26  1  0  0  0  0
 26 27  1  0  0  0  0
 26 28  1  0  0  0  0
 28 29  1  0  0  0  0
 28 48  1  0  0  0  0
 28 49  1  0  0  0  0
 29 30  1  0  0  0  0
 29 50  1  0  0  0  0
 29 51  1  0  0  0  0
 30 52  1  0  0  0  0
 30 53  1  0  0  0  0
M  CHG  1  23   1
M  END
$$$$
CHEMBL70471
  -OEChem-07121202283D

 55 60  0     1  0  0  0  0  0999 V2000
   -0.0178    1.4608    0.0101 C   0  0  0  0  0  0  0  0  0  0  0  0
    0.0021   -0.0041    0.0020 N   0  0  0  0  0  0  0  0  0  0  0  0
    0.0054   -0.6573   -1.1733 C   0  0  0  0  0  0  0  0  0  0  0  0
   -0.0083   -0.0326   -2.2187 O   0  0  0  0  0  0  0  0  0  0  0  0
    0.0253   -2.0678   -1.1930 C   0  0  0  0  0  0  0  0  0  0  0  0
    0.0428   -2.7648    0.0060 C   0  0  0  0  0  0  0  0  0  0  0  0
    0.0601   -4.0673   -0.2928 N   0  3  0  0  0  0  0  0  0  0  0  0
    0.0542   -4.2242   -1.5919 C   0  0  0  0  0  0  0  0  0  0  0  0
    0.0329   -3.0197   -2.1947 N   0  0  0  0  0  0  0  0  0  0  0  0
    0.0195   -2.7671   -3.6376 C   0  0  0  0  0  0  0  0  0  0  0  0
    1.4355   -2.6597   -4.1420 C   0  0  0  0  0  0  0  0  0  0  0  0
    2.0711   -1.4323   -4.1615 C   0  0  0  0  0  0  0  0  0  0  0  0
    3.3700   -1.3338   -4.6241 C   0  0  0  0  0  0  0  0  0  0  0  0
    4.0334   -2.4628   -5.0669 C   0  0  0  0  0  0  0  0  0  0  0  0
    3.3982   -3.6904   -5.0466 C   0  0  0  0  0  0  0  0  0  0  0  0
    2.1007   -3.7896   -4.5799 C   0  0  0  0  0  0  0  0  0  0  0  0
    0.0695   -5.5513   -2.3056 C   0  0  0  0  0  0  0  0  0  0  0  0
   -1.3607   -6.0811   -2.4279 C   0  0  0  0  0  0  0  0  0  0  0  0
   -1.6945   -7.3871   -1.7041 C   0  0  0  0  0  0  0  0  0  0  0  0
   -1.5714   -7.3675   -3.2290 C   0  0  0  0  0  0  0  0  0  0  0  0
    0.0390   -2.0621    1.2023 N   0  0  0  0  0  0  0  0  0  0  0  0
    0.0228   -0.6909    1.2067 C   0  0  0  0  0  0  0  0  0  0  0  0
    0.0232   -0.1825    2.4083 N   0  3  0  0  0  0  0  0  0  0  0  0
    0.0515   -1.2406    3.4216 C   0  0  1  0  0  0  0  0  0  0  0  0
   -0.8088   -1.1891    4.0888 H   0  0  0  0  0  0  0  0  0  0  0  0
    0.0538   -2.5462    2.5925 C   0  0  2  0  0  0  0  0  0  0  0  0
   -0.7960   -3.1915    2.8149 H   0  0  0  0  0  0  0  0  0  0  0  0
    1.4070   -3.2270    2.8788 C   0  0  0  0  0  0  0  0  0  0  0  0
    2.3282   -2.0707    3.3395 C   0  0  0  0  0  0  0  0  0  0  0  0
    1.3841   -1.1747    4.1950 C   0  0  0  0  0  0  0  0  0  0  0  0
    1.0048    1.8381    0.0023 H   0  0  0  0  0  0  0  0  0  0  0  0
   -0.5450    1.8219   -0.8730 H   0  0  0  0  0  0  0  0  0  0  0  0
   -0.5280    1.8123    0.9069 H   0  0  0  0  0  0  0  0  0  0  0  0
   -0.4859   -3.5884   -4.1456 H   0  0  0  0  0  0  0  0  0  0  0  0
   -0.5094   -1.8353   -3.8385 H   0  0  0  0  0  0  0  0  0  0  0  0
    1.5527   -0.5502   -3.8155 H   0  0  0  0  0  0  0  0  0  0  0  0
    3.8663   -0.3747   -4.6400 H   0  0  0  0  0  0  0  0  0  0  0  0
    5.0480   -2.3858   -5.4290 H   0  0  0  0  0  0  0  0  0  0  0  0
    3.9164   -4.5724   -5.3929 H   0  0  0  0  0  0  0  0  0  0  0  0
    1.6057   -4.7492   -4.5606 H   0  0  0  0  0  0  0  0  0  0  0  0
    0.4960   -5.4239   -3.3006 H   0  0  0  0  0  0  0  0  0  0  0  0
    0.6728   -6.2612   -1.7398 H   0  0  0  0  0  0  0  0  0  0  0  0
   -2.1405   -5.3214   -2.4814 H   0  0  0  0  0  0  0  0  0  0  0  0
   -0.8953   -7.8689   -1.1408 H   0  0  0  0  0  0  0  0  0  0  0  0
   -2.6941   -7.4868   -1.2811 H   0  0  0  0  0  0  0  0  0  0  0  0
   -2.4901   -7.4542   -3.8093 H   0  0  0  0  0  0  0  0  0  0  0  0
   -0.6912   -7.8363   -3.6690 H   0  0  0  0  0  0  0  0  0  0  0  0
    1.3006   -3.9681    3.6710 H   0  0  0  0  0  0  0  0  0  0  0  0
    1.7999   -3.6895    1.9734 H   0  0  0  0  0  0  0  0  0  0  0  0
    3.1475   -2.4495    3.9506 H   0  0  0  0  0  0  0  0  0  0  0  0
    2.7088   -1.5152    2.4825 H   0  0  0  0  0  0  0  0  0  0  0  0
    1.7428   -0.1468    4.2495 H   0  0  0  0  0  0  0  0  0  0  0  0
    1.2656   -1.5917    5.1951 H   0  0  0  0  0  0  0  0  0  0  0  0
    0.0072    0.7673    2.6043 H   0  0  0  0  0  0  0  0  0  0  0  0
    0.0748   -4.7883    0.3560 H   0  0  0  0  0  0  0  0  0  0  0  0
  1  2  1  0  0  0  0
  1 31  1  0  0  0  0
  1 32  1  0  0  0  0
  1 33  1  0  0  0  0
  2 22  1  0  0  0  0
  2  3  1  0  0  0  0
  3  4  2  0  0  0  0
  3  5  1  0  0  0  0
  5  9  1  0  0  0  0
  5  6  2  0  0  0  0
  6  7  1  0  0  0  0
  6 21  1  0  0  0  0
  7  8  2  0  0  0  0
  7 55  1  0  0  0  0
  8  9  1  0  0  0  0
  8 17  1  0  0  0  0
  9 10  1  0  0  0  0
 10 11  1  0  0  0  0
 10 34  1  0  0  0  0
 10 35  1  0  0  0  0
 11 16  2  0  0  0  0
 11 12  1  0  0  0  0
 12 13  2  0  0  0  0
 12 36  1  0  0  0  0
 13 14  1  0  0  0  0
 13 37  1  0  0  0  0
 14 15  2  0  0  0  0
 14 38  1  0  0  0  0
 15 16  1  0  0  0  0
 15 39  1  0  0  0  0
 16 40  1  0  0  0  0
 17 18  1  0  0  0  0
 17 41  1  0  0  0  0
 17 42  1  0  0  0  0
 18 20  1  0  0  0  0
 18 19  1  0  0  0  0
 18 43  1  0  0  0  0
 19 20  1  0  0  0  0
 19 44  1  0  0  0  0
 19 45  1  0  0  0  0
 20 46  1  0  0  0  0
 20 47  1  0  0  0  0
 21 26  1  0  0  0  0
 21 22  1  0  0  0  0
 22 23  2  0  0  0  0
 23 24  1  0  0  0  0
 23 54  1  0  0  0  0
 24 25  1  0  0  0  0
 24 30  1  0  0  0  0
 24 26  1  0  0  0  0
 26 27  1  0  0  0  0
 26 28  1  0  0  0  0
 28 29  1  0  0  0  0
 28 48  1  0  0  0  0
 28 49  1  0  0  0  0
 29 30  1  0  0  0  0
 29 50  1  0  0  0  0
 29 51  1  0  0  0  0
 30 52  1  0  0  0  0
 30 53  1  0  0  0  0
M  CHG  2   7   1  23   1
M  END
$$$$
CHEMBL70295
  -OEChem-07121202283D

 41 45  0     1  0  0  0  0  0999 V2000
   -0.0178    1.4608    0.0101 C   0  0  0  0  0  0  0  0  0  0  0  0
    0.0021   -0.0041    0.0020 N   0  0  0  0  0  0  0  0  0  0  0  0
    0.0054   -0.6566   -1.1744 C   0  0  0  0  0  0  0  0  0  0  0  0
   -0.0086   -0.0384   -2.2231 O   0  0  0  0  0  0  0  0  0  0  0  0
    0.0266   -2.1195   -1.1760 C   0  0  0  0  0  0  0  0  0  0  0  0
    0.0433   -2.7825    0.0421 C   0  0  0  0  0  0  0  0  0  0  0  0
    0.0609   -4.1122   -0.2441 N   0  0  0  0  0  0  0  0  0  0  0  0
    0.0544   -4.2410   -1.6028 C   0  0  0  0  0  0  0  0  0  0  0  0
    0.0342   -3.0611   -2.1514 N   0  0  0  0  0  0  0  0  0  0  0  0
    0.0757   -4.8371    0.4003 H   0  0  0  0  0  0  0  0  0  0  0  0
    0.0688   -5.5483   -2.3523 C   0  0  0  0  0  0  0  0  0  0  0  0
   -1.1182   -5.5965   -3.3164 C   0  0  0  0  0  0  0  0  0  0  0  0
   -2.1795   -6.6723   -3.0770 C   0  0  0  0  0  0  0  0  0  0  0  0
   -1.2151   -6.7985   -4.2581 C   0  0  0  0  0  0  0  0  0  0  0  0
    0.0392   -2.0608    1.2171 N   0  0  0  0  0  0  0  0  0  0  0  0
    0.0228   -0.6900    1.2075 C   0  0  0  0  0  0  0  0  0  0  0  0
    0.0234   -0.1690    2.4049 N   0  3  0  0  0  0  0  0  0  0  0  0
    0.0512   -1.2158    3.4291 C   0  0  1  0  0  0  0  0  0  0  0  0
   -0.8090   -1.1564    4.0959 H   0  0  0  0  0  0  0  0  0  0  0  0
    0.0527   -2.5299    2.6141 C   0  0  2  0  0  0  0  0  0  0  0  0
   -0.7982   -3.1714    2.8434 H   0  0  0  0  0  0  0  0  0  0  0  0
    1.4050   -3.2098    2.9065 C   0  0  0  0  0  0  0  0  0  0  0  0
    2.3282   -2.0502    3.3548 C   0  0  0  0  0  0  0  0  0  0  0  0
    1.3840   -1.1431    4.2016 C   0  0  0  0  0  0  0  0  0  0  0  0
    1.0048    1.8381    0.0023 H   0  0  0  0  0  0  0  0  0  0  0  0
   -0.5450    1.8219   -0.8730 H   0  0  0  0  0  0  0  0  0  0  0  0
   -0.5280    1.8123    0.9069 H   0  0  0  0  0  0  0  0  0  0  0  0
    0.9981   -5.6339   -2.9155 H   0  0  0  0  0  0  0  0  0  0  0  0
   -0.0043   -6.3738   -1.6443 H   0  0  0  0  0  0  0  0  0  0  0  0
   -1.4556   -4.6318   -3.6954 H   0  0  0  0  0  0  0  0  0  0  0  0
   -2.0320   -7.3457   -2.2327 H   0  0  0  0  0  0  0  0  0  0  0  0
   -3.2154   -6.4154   -3.2984 H   0  0  0  0  0  0  0  0  0  0  0  0
   -1.6165   -6.6247   -5.2565 H   0  0  0  0  0  0  0  0  0  0  0  0
   -0.4331   -7.5549   -4.1907 H   0  0  0  0  0  0  0  0  0  0  0  0
    1.2979   -3.9426    3.7062 H   0  0  0  0  0  0  0  0  0  0  0  0
    1.7966   -3.6821    2.0056 H   0  0  0  0  0  0  0  0  0  0  0  0
    3.1471   -2.4240    3.9694 H   0  0  0  0  0  0  0  0  0  0  0  0
    2.7094   -1.5042    2.4919 H   0  0  0  0  0  0  0  0  0  0  0  0
    1.7438   -0.1152    4.2454 H   0  0  0  0  0  0  0  0  0  0  0  0
    1.2652   -1.5496    5.2060 H   0  0  0  0  0  0  0  0  0  0  0  0
    0.0076    0.7828    2.5910 H   0  0  0  0  0  0  0  0  0  0  0  0
  1  2  1  0  0  0  0
  1 25  1  0  0  0  0
  1 26  1  0  0  0  0
  1 27  1  0  0  0  0
  2 16  1  0  0  0  0
  2  3  1  0  0  0  0
  3  4  2  0  0  0  0
  3  5  1  0  0  0  0
  5  9  1  0  0  0  0
  5  6  2  0  0  0  0
  6 15  1  0  0  0  0
  6  7  1  0  0  0  0
  7  8  1  0  0  0  0
  7 10  1  0  0  0  0
  8 11  1  0  0  0  0
  8  9  2  0  0  0  0
 11 12  1  0  0  0  0
 11 28  1  0  0  0  0
 11 29  1  0  0  0  0
 12 14  1  0  0  0  0
 12 13  1  0  0  0  0
 12 30  1  0  0  0  0
 13 14  1  0  0  0  0
 13 31  1  0  0  0  0
 13 32  1  0  0  0  0
 14 33  1  0  0  0  0
 14 34  1  0  0  0  0
 15 20  1  0  0  0  0
 15 16  1  0  0  0  0
 16 17  2  0  0  0  0
 17 18  1  0  0  0  0
 17 41  1  0  0  0  0
 18 19  1  0  0  0  0
 18 24  1  0  0  0  0
 18 20  1  0  0  0  0
 20 21  1  0  0  0  0
 20 22  1  0  0  0  0
 22 23  1  0  0  0  0
 22 35  1  0  0  0  0
 22 36  1  0  0  0  0
 23 24  1  0  0  0  0
 23 37  1  0  0  0  0
 23 38  1  0  0  0  0
 24 39  1  0  0  0  0
 24 40  1  0  0  0  0
M  CHG  1  17   1
M  END
$$$$
CHEMBL70295
  -OEChem-07121202283D

 41 45  0     1  0  0  0  0  0999 V2000
   -0.0178    1.4608    0.0101 C   0  0  0  0  0  0  0  0  0  0  0  0
    0.0021   -0.0041    0.0020 N   0  0  0  0  0  0  0  0  0  0  0  0
    0.0054   -0.6573   -1.1733 C   0  0  0  0  0  0  0  0  0  0  0  0
   -0.0083   -0.0326   -2.2187 O   0  0  0  0  0  0  0  0  0  0  0  0
    0.0253   -2.0678   -1.1930 C   0  0  0  0  0  0  0  0  0  0  0  0
    0.0428   -2.7648    0.0060 C   0  0  0  0  0  0  0  0  0  0  0  0
    0.0601   -4.0673   -0.2928 N   0  0  0  0  0  0  0  0  0  0  0  0
    0.0542   -4.2242   -1.5919 C   0  0  0  0  0  0  0  0  0  0  0  0
    0.0329   -3.0197   -2.1947 N   0  0  0  0  0  0  0  0  0  0  0  0
    0.0240   -2.8524   -3.1501 H   0  0  0  0  0  0  0  0  0  0  0  0
    0.0695   -5.5513   -2.3056 C   0  0  0  0  0  0  0  0  0  0  0  0
    1.2662   -6.3749   -1.8255 C   0  0  0  0  0  0  0  0  0  0  0  0
    2.3437   -6.7218   -2.8550 C   0  0  0  0  0  0  0  0  0  0  0  0
    1.3928   -7.8076   -2.3473 C   0  0  0  0  0  0  0  0  0  0  0  0
    0.0390   -2.0621    1.2023 N   0  0  0  0  0  0  0  0  0  0  0  0
    0.0228   -0.6909    1.2067 C   0  0  0  0  0  0  0  0  0  0  0  0
    0.0232   -0.1825    2.4083 N   0  3  0  0  0  0  0  0  0  0  0  0
    0.0515   -1.2406    3.4216 C   0  0  1  0  0  0  0  0  0  0  0  0
   -0.8088   -1.1891    4.0888 H   0  0  0  0  0  0  0  0  0  0  0  0
    0.0538   -2.5462    2.5925 C   0  0  2  0  0  0  0  0  0  0  0  0
   -0.7960   -3.1915    2.8149 H   0  0  0  0  0  0  0  0  0  0  0  0
    1.4070   -3.2270    2.8788 C   0  0  0  0  0  0  0  0  0  0  0  0
    2.3282   -2.0707    3.3395 C   0  0  0  0  0  0  0  0  0  0  0  0
    1.3841   -1.1747    4.1950 C   0  0  0  0  0  0  0  0  0  0  0  0
    1.0048    1.8381    0.0023 H   0  0  0  0  0  0  0  0  0  0  0  0
   -0.5450    1.8219   -0.8730 H   0  0  0  0  0  0  0  0  0  0  0  0
   -0.5280    1.8123    0.9069 H   0  0  0  0  0  0  0  0  0  0  0  0
   -0.8528   -6.0907   -2.0897 H   0  0  0  0  0  0  0  0  0  0  0  0
    0.1502   -5.3853   -3.3799 H   0  0  0  0  0  0  0  0  0  0  0  0
    1.5904   -6.1811   -0.8030 H   0  0  0  0  0  0  0  0  0  0  0  0
    2.1999   -6.3633   -3.8742 H   0  0  0  0  0  0  0  0  0  0  0  0
    3.3770   -6.7562   -2.5098 H   0  0  0  0  0  0  0  0  0  0  0  0
    1.8006   -8.5563   -1.6682 H   0  0  0  0  0  0  0  0  0  0  0  0
    0.6235   -8.1635   -3.0326 H   0  0  0  0  0  0  0  0  0  0  0  0
    1.3006   -3.9681    3.6710 H   0  0  0  0  0  0  0  0  0  0  0  0
    1.7999   -3.6895    1.9734 H   0  0  0  0  0  0  0  0  0  0  0  0
    3.1475   -2.4495    3.9506 H   0  0  0  0  0  0  0  0  0  0  0  0
    2.7088   -1.5152    2.4825 H   0  0  0  0  0  0  0  0  0  0  0  0
    1.7428   -0.1468    4.2495 H   0  0  0  0  0  0  0  0  0  0  0  0
    1.2656   -1.5917    5.1951 H   0  0  0  0  0  0  0  0  0  0  0  0
    0.0072    0.7673    2.6043 H   0  0  0  0  0  0  0  0  0  0  0  0
  1  2  1  0  0  0  0
  1 25  1  0  0  0  0
  1 26  1  0  0  0  0
  1 27  1  0  0  0  0
  2 16  1  0  0  0  0
  2  3  1  0  0  0  0
  3  4  2  0  0  0  0
  3  5  1  0  0  0  0
  5  9  1  0  0  0  0
  5  6  2  0  0  0  0
  6  7  1  0  0  0  0
  6 15  1  0  0  0  0
  7  8  2  0  0  0  0
  8  9  1  0  0  0  0
  8 11  1  0  0  0  0
  9 10  1  0  0  0  0
 11 12  1  0  0  0  0
 11 28  1  0  0  0  0
 11 29  1  0  0  0  0
 12 14  1  0  0  0  0
 12 13  1  0  0  0  0
 12 30  1  0  0  0  0
 13 14  1  0  0  0  0
 13 31  1  0  0  0  0
 13 32  1  0  0  0  0
 14 33  1  0  0  0  0
 14 34  1  0  0  0  0
 15 20  1  0  0  0  0
 15 16  1  0  0  0  0
 16 17  2  0  0  0  0
 17 18  1  0  0  0  0
 17 41  1  0  0  0  0
 18 19  1  0  0  0  0
 18 24  1  0  0  0  0
 18 20  1  0  0  0  0
 20 21  1  0  0  0  0
 20 22  1  0  0  0  0
 22 23  1  0  0  0  0
 22 35  1  0  0  0  0
 22 36  1  0  0  0  0
 23 24  1  0  0  0  0
 23 37  1  0  0  0  0
 23 38  1  0  0  0  0
 24 39  1  0  0  0  0
 24 40  1  0  0  0  0
M  CHG  1  17   1
M  END
$$$$
CHEMBL194010
  -OEChem-07121202283D

 40 43  0     0  0  0  0  0  0999 V2000
   -0.0187    1.5258    0.0104 C   0  0  0  0  0  0  0  0  0  0  0  0
    0.0021   -0.0041    0.0020 C   0  0  0  0  0  0  0  0  0  0  0  0
    0.6932   -0.4774    1.1597 O   0  0  0  0  0  0  0  0  0  0  0  0
    0.8019   -1.8226    1.3055 C   0  0  0  0  0  0  0  0  0  0  0  0
    0.2607   -2.6719    0.3531 C   0  0  0  0  0  0  0  0  0  0  0  0
    0.3719   -4.0407    0.5025 C   0  0  0  0  0  0  0  0  0  0  0  0
    1.0230   -4.5747    1.6021 C   0  0  0  0  0  0  0  0  0  0  0  0
    1.5666   -3.7446    2.5590 C   0  0  0  0  0  0  0  0  0  0  0  0
    1.4666   -2.3587    2.4166 C   0  0  0  0  0  0  0  0  0  0  0  0
    2.0518   -1.4642    3.4337 C   0  0  0  0  0  0  0  0  0  0  0  0
    1.9311   -0.1672    3.2765 N   0  0  0  0  0  0  0  0  0  0  0  0
    2.4367    0.7004    4.1586 C   0  0  0  0  0  0  0  0  0  0  0  0
    3.1173    0.2222    5.2875 C   0  0  0  0  0  0  0  0  0  0  0  0
    3.2462   -1.2273    5.4531 C   0  0  0  0  0  0  0  0  0  0  0  0
    2.6939   -2.0201    4.5060 N   0  0  0  0  0  0  0  0  0  0  0  0
    3.8266   -1.7029    6.4134 O   0  0  0  0  0  0  0  0  0  0  0  0
    3.5208    1.2818    6.0036 N   0  0  0  0  0  0  0  0  0  0  0  0
    3.1375    2.3949    5.3973 C   0  0  0  0  0  0  0  0  0  0  0  0
    2.4599    2.0694    4.2455 N   0  0  0  0  0  0  0  0  0  0  0  0
    1.9599    3.0523    3.4373 C   0  0  0  0  0  0  0  0  0  0  0  0
    2.1220    4.3529    3.7539 C   0  0  0  0  0  0  0  0  0  0  0  0
    2.8099    4.7179    4.9244 C   0  0  0  0  0  0  0  0  0  0  0  0
    3.3123    3.7538    5.7396 C   0  0  0  0  0  0  0  0  0  0  0  0
    1.2199    2.6780    2.1789 C   0  0  0  0  0  0  0  0  0  0  0  0
    1.0039    1.9031    0.0027 H   0  0  0  0  0  0  0  0  0  0  0  0
   -0.5459    1.8868   -0.8726 H   0  0  0  0  0  0  0  0  0  0  0  0
   -0.5289    1.8773    0.9072 H   0  0  0  0  0  0  0  0  0  0  0  0
   -1.0205   -0.3814    0.0098 H   0  0  0  0  0  0  0  0  0  0  0  0
    0.5123   -0.3556   -0.8948 H   0  0  0  0  0  0  0  0  0  0  0  0
   -0.2488   -2.2629   -0.5069 H   0  0  0  0  0  0  0  0  0  0  0  0
   -0.0517   -4.6983   -0.2422 H   0  0  0  0  0  0  0  0  0  0  0  0
    1.1050   -5.6461    1.7104 H   0  0  0  0  0  0  0  0  0  0  0  0
    2.0732   -4.1652    3.4151 H   0  0  0  0  0  0  0  0  0  0  0  0
    1.7218    5.1178    3.1050 H   0  0  0  0  0  0  0  0  0  0  0  0
    2.9381    5.7606    5.1749 H   0  0  0  0  0  0  0  0  0  0  0  0
    3.8419    4.0245    6.6411 H   0  0  0  0  0  0  0  0  0  0  0  0
    0.1581    2.5699    2.4003 H   0  0  0  0  0  0  0  0  0  0  0  0
    1.3574    3.4588    1.4308 H   0  0  0  0  0  0  0  0  0  0  0  0
    1.6091    1.7348    1.7954 H   0  0  0  0  0  0  0  0  0  0  0  0
    2.7567   -2.9848    4.5857 H   0  0  0  0  0  0  0  0  0  0  0  0
  1  2  1  0  0  0  0
  1 25  1  0  0  0  0
  1 26  1  0  0  0  0
  1 27  1  0  0  0  0
  2  3  1  0  0  0  0
  2 28  1  0  0  0  0
  2 29  1  0  0  0  0
  3  4  1  0  0  0  0
  4  9  2  0  0  0  0
  4  5  1  0  0  0  0
  5  6  2  0  0  0  0
  5 30  1  0  0  0  0
  6  7  1  0  0  0  0
  6 31  1  0  0  0  0
  7  8  2  0  0  0  0
  7 32  1  0  0  0  0
  8  9  1  0  0  0  0
  8 33  1  0  0  0  0
  9 10  1  0  0  0  0
 10 15  1  0  0  0  0
 10 11  2  0  0  0  0
 11 12  1  0  0  0  0
 12 19  1  0  0  0  0
 12 13  2  0  0  0  0
 13 14  1  0  0  0  0
 13 17  1  0  0  0  0
 14 15  1  0  0  0  0
 14 16  2  0  0  0  0
 15 40  1  0  0  0  0
 17 18  2  0  0  0  0
 18 23  1  0  0  0  0
 18 19  1  0  0  0  0
 19 20  1  0  0  0  0
 20 21  2  0  0  0  0
 20 24  1  0  0  0  0
 21 22  1  0  0  0  0
 21 34  1  0  0  0  0
 22 23  2  0  0  0  0
 22 35  1  0  0  0  0
 23 36  1  0  0  0  0
 24 37  1  0  0  0  0
 24 38  1  0  0  0  0
 24 39  1  0  0  0  0
M  END
$$$$
CHEMBL296071
  -OEChem-07121202283D

 49 52  0     0  0  0  0  0  0999 V2000
   -0.0187    1.5258    0.0104 C   0  0  0  0  0  0  0  0  0  0  0  0
    0.0021   -0.0041    0.0020 C   0  0  0  0  0  0  0  0  0  0  0  0
   -1.4333   -0.5336    0.0129 C   0  0  0  0  0  0  0  0  0  0  0  0
   -1.4139   -1.9625    0.0050 O   0  0  0  0  0  0  0  0  0  0  0  0
   -2.6148   -2.5951    0.0131 C   0  0  0  0  0  0  0  0  0  0  0  0
   -3.7884   -1.8560    0.0225 C   0  0  0  0  0  0  0  0  0  0  0  0
   -5.0108   -2.4944    0.0302 C   0  0  0  0  0  0  0  0  0  0  0  0
   -5.0762   -3.8887    0.0287 C   0  0  0  0  0  0  0  0  0  0  0  0
   -3.9070   -4.6399    0.0198 C   0  0  0  0  0  0  0  0  0  0  0  0
   -2.6696   -3.9958    0.0061 C   0  0  0  0  0  0  0  0  0  0  0  0
   -1.4234   -4.7858   -0.0095 C   0  0  0  0  0  0  0  0  0  0  0  0
   -0.2761   -4.1498   -0.0112 N   0  0  0  0  0  0  0  0  0  0  0  0
    0.8926   -4.8025   -0.0246 C   0  0  0  0  0  0  0  0  0  0  0  0
    0.8964   -6.2078   -0.0373 C   0  0  0  0  0  0  0  0  0  0  0  0
    2.2416   -6.6213   -0.0497 C   0  0  0  0  0  0  0  0  0  0  0  0
    2.9982   -5.5586   -0.0450 N   0  0  0  0  0  0  0  0  0  0  0  0
    2.1950   -4.4115   -0.0295 N   0  0  0  0  0  0  0  0  0  0  0  0
    2.6754   -3.0276   -0.0210 C   0  0  0  0  0  0  0  0  0  0  0  0
    2.7255   -8.0484   -0.0656 C   0  0  0  0  0  0  0  0  0  0  0  0
   -0.3895   -6.9046   -0.0357 C   0  0  0  0  0  0  0  0  0  0  0  0
   -1.5127   -6.1497   -0.0160 N   0  0  0  0  0  0  0  0  0  0  0  0
   -0.4475   -8.1215   -0.0462 O   0  0  0  0  0  0  0  0  0  0  0  0
   -6.3948   -4.5692    0.0370 C   0  0  0  0  0  0  0  0  0  0  0  0
   -7.5672   -3.8693   -0.0603 C   0  0  0  0  0  0  0  0  0  0  0  0
   -8.7532   -5.2023    0.0052 S   0  0  0  0  0  0  0  0  0  0  0  0
   -7.6652   -6.4782    0.1458 C   0  0  0  0  0  0  0  0  0  0  0  0
   -6.4989   -5.8868    0.1336 N   0  0  0  0  0  0  0  0  0  0  0  0
   -7.9634   -7.9514    0.2541 C   0  0  0  0  0  0  0  0  0  0  0  0
    1.0039    1.9031    0.0027 H   0  0  0  0  0  0  0  0  0  0  0  0
   -0.5459    1.8868   -0.8726 H   0  0  0  0  0  0  0  0  0  0  0  0
   -0.5289    1.8773    0.9072 H   0  0  0  0  0  0  0  0  0  0  0  0
    0.5123   -0.3556   -0.8948 H   0  0  0  0  0  0  0  0  0  0  0  0
    0.5293   -0.3651    0.8851 H   0  0  0  0  0  0  0  0  0  0  0  0
   -1.9435   -0.1821    0.9097 H   0  0  0  0  0  0  0  0  0  0  0  0
   -1.9605   -0.1726   -0.8702 H   0  0  0  0  0  0  0  0  0  0  0  0
   -3.7449   -0.7768    0.0241 H   0  0  0  0  0  0  0  0  0  0  0  0
   -5.9211   -1.9132    0.0379 H   0  0  0  0  0  0  0  0  0  0  0  0
   -3.9562   -5.7188    0.0189 H   0  0  0  0  0  0  0  0  0  0  0  0
    2.8010   -2.6930    1.0088 H   0  0  0  0  0  0  0  0  0  0  0  0
    3.6321   -2.9719   -0.5403 H   0  0  0  0  0  0  0  0  0  0  0  0
    1.9506   -2.3882   -0.5249 H   0  0  0  0  0  0  0  0  0  0  0  0
    2.8356   -8.3832   -1.0971 H   0  0  0  0  0  0  0  0  0  0  0  0
    3.6883   -8.1112    0.4415 H   0  0  0  0  0  0  0  0  0  0  0  0
    2.0027   -8.6829    0.4472 H   0  0  0  0  0  0  0  0  0  0  0  0
   -7.7298   -2.8054   -0.1512 H   0  0  0  0  0  0  0  0  0  0  0  0
   -9.0420   -8.1066    0.2286 H   0  0  0  0  0  0  0  0  0  0  0  0
   -7.5007   -8.4781   -0.5805 H   0  0  0  0  0  0  0  0  0  0  0  0
   -7.5632   -8.3351    1.1926 H   0  0  0  0  0  0  0  0  0  0  0  0
   -2.3832   -6.5776   -0.0104 H   0  0  0  0  0  0  0  0  0  0  0  0
  1  2  1  0  0  0  0
  1 29  1  0  0  0  0
  1 30  1  0  0  0  0
  1 31  1  0  0  0  0
  2  3  1  0  0  0  0
  2 32  1  0  0  0  0
  2 33  1  0  0  0  0
  3  4  1  0  0  0  0
  3 34  1  0  0  0  0
  3 35  1  0  0  0  0
  4  5  1  0  0  0  0
  5 10  2  0  0  0  0
  5  6  1  0  0  0  0
  6  7  2  0  0  0  0
  6 36  1  0  0  0  0
  7  8  1  0  0  0  0
  7 37  1  0  0  0  0
  8  9  2  0  0  0  0
  8 23  1  0  0  0  0
  9 10  1  0  0  0  0
  9 38  1  0  0  0  0
 10 11  1  0  0  0  0
 11 21  1  0  0  0  0
 11 12  2  0  0  0  0
 12 13  1  0  0  0  0
 13 17  1  0  0  0  0
 13 14  2  0  0  0  0
 14 15  1  0  0  0  0
 14 20  1  0  0  0  0
 15 16  2  0  0  0  0
 15 19  1  0  0  0  0
 16 17  1  0  0  0  0
 17 18  1  0  0  0  0
 18 39  1  0  0  0  0
 18 40  1  0  0  0  0
 18 41  1  0  0  0  0
 19 42  1  0  0  0  0
 19 43  1  0  0  0  0
 19 44  1  0  0  0  0
 20 21  1  0  0  0  0
 20 22  2  0  0  0  0
 21 49  1  0  0  0  0
 23 27  1  0  0  0  0
 23 24  2  0  0  0  0
 24 25  1  0  0  0  0
 24 45  1  0  0  0  0
 25 26  1  0  0  0  0
 26 27  2  0  0  0  0
 26 28  1  0  0  0  0
 28 46  1  0  0  0  0
 28 47  1  0  0  0  0
 28 48  1  0  0  0  0
M  END
$$$$
CHEMBL430199
  -OEChem-07121202283D

 54 58  0     0  0  0  0  0  0999 V2000
   -0.0178    1.4608    0.0101 C   0  0  0  0  0  0  0  0  0  0  0  0
    0.0021   -0.0041    0.0020 N   0  0  0  0  0  0  0  0  0  0  0  0
    0.0054   -0.6621   -1.1759 C   0  0  0  0  0  0  0  0  0  0  0  0
   -0.0076   -0.0455   -2.2262 O   0  0  0  0  0  0  0  0  0  0  0  0
    0.0246   -2.0735   -1.1768 C   0  0  0  0  0  0  0  0  0  0  0  0
    0.0396   -2.7510    0.0359 C   0  0  0  0  0  0  0  0  0  0  0  0
    0.0560   -4.0574   -0.2407 N   0  0  0  0  0  0  0  0  0  0  0  0
    0.0523   -4.2363   -1.5371 C   0  0  0  0  0  0  0  0  0  0  0  0
    0.0331   -3.0421   -2.1605 N   0  0  0  0  0  0  0  0  0  0  0  0
    0.0259   -2.8914   -3.1187 H   0  0  0  0  0  0  0  0  0  0  0  0
    0.0679   -5.5755   -2.2280 C   0  0  0  0  0  0  0  0  0  0  0  0
    1.2454   -6.3791   -1.7393 C   0  0  0  0  0  0  0  0  0  0  0  0
    2.4222   -6.3744   -2.4251 C   0  0  0  0  0  0  0  0  0  0  0  0
    3.4729   -7.0725   -2.0168 N   0  0  0  0  0  0  0  0  0  0  0  0
    3.4568   -7.8124   -0.9322 C   0  0  0  0  0  0  0  0  0  0  0  0
    2.2922   -7.8864   -0.1529 C   0  0  0  0  0  0  0  0  0  0  0  0
    1.1527   -7.1446   -0.5627 C   0  0  0  0  0  0  0  0  0  0  0  0
   -0.0214   -7.1972    0.2016 C   0  0  0  0  0  0  0  0  0  0  0  0
   -0.0531   -7.9581    1.3351 C   0  0  0  0  0  0  0  0  0  0  0  0
    1.0744   -8.6871    1.7445 C   0  0  0  0  0  0  0  0  0  0  0  0
    2.2269   -8.6644    1.0144 C   0  0  0  0  0  0  0  0  0  0  0  0
    1.0134   -9.4355    2.8776 O   0  0  0  0  0  0  0  0  0  0  0  0
    2.1922  -10.1555    3.2438 C   0  0  0  0  0  0  0  0  0  0  0  0
   -1.1906   -8.0098    2.0766 O   0  0  0  0  0  0  0  0  0  0  0  0
   -2.3046   -7.2463    1.6096 C   0  0  0  0  0  0  0  0  0  0  0  0
    0.0352   -2.0179    1.2116 N   0  0  0  0  0  0  0  0  0  0  0  0
    0.0222   -0.6723    1.1682 C   0  0  0  0  0  0  0  0  0  0  0  0
    0.0236   -0.0457    2.2103 O   0  0  0  0  0  0  0  0  0  0  0  0
    0.0502   -2.7079    2.5038 C   0  0  0  0  0  0  0  0  0  0  0  0
    1.4978   -2.9289    2.9471 C   0  0  0  0  0  0  0  0  0  0  0  0
    1.9827   -4.3738    3.0814 C   0  0  0  0  0  0  0  0  0  0  0  0
    1.7275   -3.5330    4.3339 C   0  0  0  0  0  0  0  0  0  0  0  0
    1.0048    1.8381    0.0023 H   0  0  0  0  0  0  0  0  0  0  0  0
   -0.5450    1.8219   -0.8730 H   0  0  0  0  0  0  0  0  0  0  0  0
   -0.5280    1.8123    0.9069 H   0  0  0  0  0  0  0  0  0  0  0  0
   -0.8550   -6.1105   -2.0045 H   0  0  0  0  0  0  0  0  0  0  0  0
    0.1507   -5.4278   -3.3048 H   0  0  0  0  0  0  0  0  0  0  0  0
    2.5016   -5.7857   -3.3270 H   0  0  0  0  0  0  0  0  0  0  0  0
    4.3385   -8.3636   -0.6404 H   0  0  0  0  0  0  0  0  0  0  0  0
   -0.8945   -6.6397   -0.1038 H   0  0  0  0  0  0  0  0  0  0  0  0
    3.0875   -9.2301    1.3395 H   0  0  0  0  0  0  0  0  0  0  0  0
    2.0083  -10.7097    4.1641 H   0  0  0  0  0  0  0  0  0  0  0  0
    2.4551  -10.8513    2.4470 H   0  0  0  0  0  0  0  0  0  0  0  0
    3.0124   -9.4547    3.3994 H   0  0  0  0  0  0  0  0  0  0  0  0
   -2.0304   -6.1922    1.5671 H   0  0  0  0  0  0  0  0  0  0  0  0
   -2.5880   -7.5885    0.6143 H   0  0  0  0  0  0  0  0  0  0  0  0
   -3.1452   -7.3759    2.2914 H   0  0  0  0  0  0  0  0  0  0  0  0
   -0.4683   -2.1008    3.2459 H   0  0  0  0  0  0  0  0  0  0  0  0
   -0.4513   -3.6708    2.4074 H   0  0  0  0  0  0  0  0  0  0  0  0
    2.2155   -2.1875    2.5959 H   0  0  0  0  0  0  0  0  0  0  0  0
    1.2704   -5.1669    2.8540 H   0  0  0  0  0  0  0  0  0  0  0  0
    3.0196   -4.5833    2.8185 H   0  0  0  0  0  0  0  0  0  0  0  0
    2.5966   -3.1892    4.8950 H   0  0  0  0  0  0  0  0  0  0  0  0
    0.8474   -3.7729    4.9305 H   0  0  0  0  0  0  0  0  0  0  0  0
  1  2  1  0  0  0  0
  1 33  1  0  0  0  0
  1 34  1  0  0  0  0
  1 35  1  0  0  0  0
  2 27  1  0  0  0  0
  2  3  1  0  0  0  0
  3  4  2  0  0  0  0
  3  5  1  0  0  0  0
  5  9  1  0  0  0  0
  5  6  2  0  0  0  0
  6  7  1  0  0  0  0
  6 26  1  0  0  0  0
  7  8  2  0  0  0  0
  8  9  1  0  0  0  0
  8 11  1  0  0  0  0
  9 10  1  0  0  0  0
 11 12  1  0  0  0  0
 11 36  1  0  0  0  0
 11 37  1  0  0  0  0
 12 17  2  0  0  0  0
 12 13  1  0  0  0  0
 13 14  2  0  0  0  0
 13 38  1  0  0  0  0
 14 15  1  0  0  0  0
 15 16  2  0  0  0  0
 15 39  1  0  0  0  0
 16 21  1  0  0  0  0
 16 17  1  0  0  0  0
 17 18  1  0  0  0  0
 18 19  2  0  0  0  0
 18 40  1  0  0  0  0
 19 20  1  0  0  0  0
 19 24  1  0  0  0  0
 20 21  2  0  0  0  0
 20 22  1  0  0  0  0
 21 41  1  0  0  0  0
 22 23  1  0  0  0  0
 23 42  1  0  0  0  0
 23 43  1  0  0  0  0
 23 44  1  0  0  0  0
 24 25  1  0  0  0  0
 25 45  1  0  0  0  0
 25 46  1  0  0  0  0
 25 47  1  0  0  0  0
 26 27  1  0  0  0  0
 26 29  1  0  0  0  0
 27 28  2  0  0  0  0
 29 30  1  0  0  0  0
 29 48  1  0  0  0  0
 29 49  1  0  0  0  0
 30 32  1  0  0  0  0
 30 31  1  0  0  0  0
 30 50  1  0  0  0  0
 31 32  1  0  0  0  0
 31 51  1  0  0  0  0
 31 52  1  0  0  0  0
 32 53  1  0  0  0  0
 32 54  1  0  0  0  0
M  END
$$$$
CHEMBL430199
  -OEChem-07121202283D

 55 59  0     0  0  0  0  0  0999 V2000
   -0.0178    1.4608    0.0101 C   0  0  0  0  0  0  0  0  0  0  0  0
    0.0021   -0.0041    0.0020 N   0  0  0  0  0  0  0  0  0  0  0  0
    0.0054   -0.6621   -1.1759 C   0  0  0  0  0  0  0  0  0  0  0  0
   -0.0076   -0.0455   -2.2262 O   0  0  0  0  0  0  0  0  0  0  0  0
    0.0246   -2.0735   -1.1768 C   0  0  0  0  0  0  0  0  0  0  0  0
    0.0396   -2.7510    0.0359 C   0  0  0  0  0  0  0  0  0  0  0  0
    0.0560   -4.0574   -0.2407 N   0  0  0  0  0  0  0  0  0  0  0  0
    0.0523   -4.2363   -1.5371 C   0  0  0  0  0  0  0  0  0  0  0  0
    0.0331   -3.0421   -2.1605 N   0  0  0  0  0  0  0  0  0  0  0  0
    0.0259   -2.8914   -3.1187 H   0  0  0  0  0  0  0  0  0  0  0  0
    0.0679   -5.5755   -2.2280 C   0  0  0  0  0  0  0  0  0  0  0  0
    1.2454   -6.3791   -1.7393 C   0  0  0  0  0  0  0  0  0  0  0  0
    2.4222   -6.3744   -2.4251 C   0  0  0  0  0  0  0  0  0  0  0  0
    3.4729   -7.0725   -2.0168 N   0  3  0  0  0  0  0  0  0  0  0  0
    3.4567   -7.8128   -0.9324 C   0  0  0  0  0  0  0  0  0  0  0  0
    2.2921   -7.8868   -0.1531 C   0  0  0  0  0  0  0  0  0  0  0  0
    1.1527   -7.1446   -0.5627 C   0  0  0  0  0  0  0  0  0  0  0  0
   -0.0214   -7.1972    0.2016 C   0  0  0  0  0  0  0  0  0  0  0  0
   -0.0531   -7.9581    1.3351 C   0  0  0  0  0  0  0  0  0  0  0  0
    1.0744   -8.6871    1.7445 C   0  0  0  0  0  0  0  0  0  0  0  0
    2.2267   -8.6651    1.0139 C   0  0  0  0  0  0  0  0  0  0  0  0
    1.0134   -9.4355    2.8776 O   0  0  0  0  0  0  0  0  0  0  0  0
    2.1922  -10.1555    3.2438 C   0  0  0  0  0  0  0  0  0  0  0  0
   -1.1906   -8.0098    2.0766 O   0  0  0  0  0  0  0  0  0  0  0  0
   -2.3046   -7.2463    1.6096 C   0  0  0  0  0  0  0  0  0  0  0  0
    0.0352   -2.0179    1.2116 N   0  0  0  0  0  0  0  0  0  0  0  0
    0.0222   -0.6723    1.1682 C   0  0  0  0  0  0  0  0  0  0  0  0
    0.0236   -0.0457    2.2103 O   0  0  0  0  0  0  0  0  0  0  0  0
    0.0502   -2.7079    2.5038 C   0  0  0  0  0  0  0  0  0  0  0  0
    1.4978   -2.9289    2.9471 C   0  0  0  0  0  0  0  0  0  0  0  0
    1.9827   -4.3738    3.0814 C   0  0  0  0  0  0  0  0  0  0  0  0
    1.7275   -3.5330    4.3339 C   0  0  0  0  0  0  0  0  0  0  0  0
    1.0048    1.8381    0.0023 H   0  0  0  0  0  0  0  0  0  0  0  0
   -0.5450    1.8219   -0.8730 H   0  0  0  0  0  0  0  0  0  0  0  0
   -0.5280    1.8123    0.9069 H   0  0  0  0  0  0  0  0  0  0  0  0
   -0.8550   -6.1105   -2.0045 H   0  0  0  0  0  0  0  0  0  0  0  0
    0.1507   -5.4278   -3.3048 H   0  0  0  0  0  0  0  0  0  0  0  0
    2.5016   -5.7857   -3.3270 H   0  0  0  0  0  0  0  0  0  0  0  0
    4.3383   -8.3643   -0.6409 H   0  0  0  0  0  0  0  0  0  0  0  0
   -0.8945   -6.6397   -0.1038 H   0  0  0  0  0  0  0  0  0  0  0  0
    3.0872   -9.2311    1.3388 H   0  0  0  0  0  0  0  0  0  0  0  0
    2.0083  -10.7097    4.1641 H   0  0  0  0  0  0  0  0  0  0  0  0
    2.4551  -10.8513    2.4470 H   0  0  0  0  0  0  0  0  0  0  0  0
    3.0124   -9.4547    3.3994 H   0  0  0  0  0  0  0  0  0  0  0  0
   -2.0304   -6.1922    1.5671 H   0  0  0  0  0  0  0  0  0  0  0  0
   -2.5880   -7.5885    0.6143 H   0  0  0  0  0  0  0  0  0  0  0  0
   -3.1452   -7.3759    2.2914 H   0  0  0  0  0  0  0  0  0  0  0  0
   -0.4683   -2.1008    3.2459 H   0  0  0  0  0  0  0  0  0  0  0  0
   -0.4513   -3.6708    2.4074 H   0  0  0  0  0  0  0  0  0  0  0  0
    2.2155   -2.1875    2.5959 H   0  0  0  0  0  0  0  0  0  0  0  0
    1.2704   -5.1669    2.8540 H   0  0  0  0  0  0  0  0  0  0  0  0
    3.0196   -4.5833    2.8185 H   0  0  0  0  0  0  0  0  0  0  0  0
    2.5966   -3.1892    4.8950 H   0  0  0  0  0  0  0  0  0  0  0  0
    0.8474   -3.7729    4.9305 H   0  0  0  0  0  0  0  0  0  0  0  0
    4.2879   -7.0349   -2.5415 H   0  0  0  0  0  0  0  0  0  0  0  0
  1  2  1  0  0  0  0
  1 33  1  0  0  0  0
  1 34  1  0  0  0  0
  1 35  1  0  0  0  0
  2 27  1  0  0  0  0
  2  3  1  0  0  0  0
  3  4  2  0  0  0  0
  3  5  1  0  0  0  0
  5  9  1  0  0  0  0
  5  6  2  0  0  0  0
  6  7  1  0  0  0  0
  6 26  1  0  0  0  0
  7  8  2  0  0  0  0
  8  9  1  0  0  0  0
  8 11  1  0  0  0  0
  9 10  1  0  0  0  0
 11 12  1  0  0  0  0
 11 36  1  0  0  0  0
 11 37  1  0  0  0  0
 12 17  2  0  0  0  0
 12 13  1  0  0  0  0
 13 14  2  0  0  0  0
 13 38  1  0  0  0  0
 14 15  1  0  0  0  0
 14 55  1  0  0  0  0
 15 16  2  0  0  0  0
 15 39  1  0  0  0  0
 16 21  1  0  0  0  0
 16 17  1  0  0  0  0
 17 18  1  0  0  0  0
 18 19  2  0  0  0  0
 18 40  1  0  0  0  0
 19 20  1  0  0  0  0
 19 24  1  0  0  0  0
 20 21  2  0  0  0  0
 20 22  1  0  0  0  0
 21 41  1  0  0  0  0
 22 23  1  0  0  0  0
 23 42  1  0  0  0  0
 23 43  1  0  0  0  0
 23 44  1  0  0  0  0
 24 25  1  0  0  0  0
 25 45  1  0  0  0  0
 25 46  1  0  0  0  0
 25 47  1  0  0  0  0
 26 27  1  0  0  0  0
 26 29  1  0  0  0  0
 27 28  2  0  0  0  0
 29 30  1  0  0  0  0
 29 48  1  0  0  0  0
 29 49  1  0  0  0  0
 30 32  1  0  0  0  0
 30 31  1  0  0  0  0
 30 50  1  0  0  0  0
 31 32  1  0  0  0  0
 31 51  1  0  0  0  0
 31 52  1  0  0  0  0
 32 53  1  0  0  0  0
 32 54  1  0  0  0  0
M  CHG  1  14   1
M  END
$$$$
CHEMBL245648
  -OEChem-07121202283D

 69 73  0     0  0  0  0  0  0999 V2000
   -0.0187    1.5258    0.0104 C   0  0  0  0  0  0  0  0  0  0  0  0
    0.0021   -0.0041    0.0020 C   0  0  0  0  0  0  0  0  0  0  0  0
    0.7421   -0.5109    1.2415 C   0  0  0  0  0  0  0  0  0  0  0  0
   -1.6997   -0.6320    0.0149 S   0  0  0  0  0  0  0  0  0  0  0  0
   -2.3591   -0.2345    1.2093 O   0  0  0  0  0  0  0  0  0  0  0  0
   -2.3081   -0.4232   -1.2522 O   0  0  0  0  0  0  0  0  0  0  0  0
   -1.5459   -2.2757    0.1441 N   0  5  0  0  0  0  0  0  0  0  0  0
   -2.6852   -3.0829    0.1824 C   0  0  0  0  0  0  0  0  0  0  0  0
   -3.9479   -2.5089    0.1064 C   0  0  0  0  0  0  0  0  0  0  0  0
   -5.0722   -3.3099    0.1440 C   0  0  0  0  0  0  0  0  0  0  0  0
   -4.9421   -4.6820    0.2577 C   0  0  0  0  0  0  0  0  0  0  0  0
   -3.6866   -5.2566    0.3336 C   0  0  0  0  0  0  0  0  0  0  0  0
   -2.5580   -4.4619    0.2907 C   0  0  0  0  0  0  0  0  0  0  0  0
   -6.1713   -5.5528    0.2995 C   0  0  0  0  0  0  0  0  0  0  0  0
   -6.5378   -5.9460   -1.0634 N   0  0  0  0  0  0  0  0  0  0  0  0
   -6.0179   -7.1055   -1.6129 C   0  0  0  0  0  0  0  0  0  0  0  0
   -6.3870   -7.4634   -2.9291 C   0  0  0  0  0  0  0  0  0  0  0  0
   -7.2643   -6.6357   -3.6328 C   0  0  0  0  0  0  0  0  0  0  0  0
   -7.6357   -6.9484   -4.8874 O   0  5  0  0  0  0  0  0  0  0  0  0
   -7.7403   -5.5080   -3.0344 N   0  0  0  0  0  0  0  0  0  0  0  0
   -7.3848   -5.1824   -1.7800 C   0  0  0  0  0  0  0  0  0  0  0  0
   -7.8363   -4.1697   -1.2804 O   0  0  0  0  0  0  0  0  0  0  0  0
   -8.6605   -4.6372   -3.7700 C   0  0  0  0  0  0  0  0  0  0  0  0
   -5.7410   -8.6205   -3.2032 N   0  0  0  0  0  0  0  0  0  0  0  0
   -5.0330   -8.9502   -2.1472 C   0  0  0  0  0  0  0  0  0  0  0  0
   -5.1928   -8.0453   -1.1852 N   0  0  0  0  0  0  0  0  0  0  0  0
   -4.1651  -10.1775   -2.0404 C   0  0  0  0  0  0  0  0  0  0  0  0
   -4.2385  -10.9583   -3.3273 C   0  0  0  0  0  0  0  0  0  0  0  0
   -5.1186  -11.9886   -3.4653 C   0  0  0  0  0  0  0  0  0  0  0  0
   -5.2033  -12.6913   -4.5865 N   0  0  0  0  0  0  0  0  0  0  0  0
   -4.4524  -12.4483   -5.6360 C   0  0  0  0  0  0  0  0  0  0  0  0
   -3.5123  -11.4073   -5.5978 C   0  0  0  0  0  0  0  0  0  0  0  0
   -3.4035  -10.6337   -4.4119 C   0  0  0  0  0  0  0  0  0  0  0  0
   -2.4757   -9.5845   -4.3502 C   0  0  0  0  0  0  0  0  0  0  0  0
   -1.6908   -9.3156   -5.4349 C   0  0  0  0  0  0  0  0  0  0  0  0
   -1.8015  -10.0755   -6.6097 C   0  0  0  0  0  0  0  0  0  0  0  0
   -2.6872  -11.1101   -6.6946 C   0  0  0  0  0  0  0  0  0  0  0  0
   -1.0072   -9.7843   -7.6737 O   0  0  0  0  0  0  0  0  0  0  0  0
   -1.1652  -10.5923   -8.8417 C   0  0  0  0  0  0  0  0  0  0  0  0
   -0.7913   -8.2988   -5.3761 O   0  0  0  0  0  0  0  0  0  0  0  0
   -0.7249   -7.5611   -4.1541 C   0  0  0  0  0  0  0  0  0  0  0  0
    1.0039    1.9031    0.0027 H   0  0  0  0  0  0  0  0  0  0  0  0
   -0.5459    1.8868   -0.8726 H   0  0  0  0  0  0  0  0  0  0  0  0
   -0.5289    1.8773    0.9072 H   0  0  0  0  0  0  0  0  0  0  0  0
    0.5123   -0.3556   -0.8948 H   0  0  0  0  0  0  0  0  0  0  0  0
    1.7647   -0.1336    1.2338 H   0  0  0  0  0  0  0  0  0  0  0  0
    0.2319   -0.1594    2.1383 H   0  0  0  0  0  0  0  0  0  0  0  0
    0.7568   -1.6008    1.2356 H   0  0  0  0  0  0  0  0  0  0  0  0
   -4.0502   -1.4374    0.0183 H   0  0  0  0  0  0  0  0  0  0  0  0
   -6.0542   -2.8643    0.0850 H   0  0  0  0  0  0  0  0  0  0  0  0
   -3.5885   -6.3285    0.4223 H   0  0  0  0  0  0  0  0  0  0  0  0
   -1.5776   -4.9117    0.3455 H   0  0  0  0  0  0  0  0  0  0  0  0
   -5.9651   -6.4443    0.8918 H   0  0  0  0  0  0  0  0  0  0  0  0
   -6.9940   -4.9986    0.7514 H   0  0  0  0  0  0  0  0  0  0  0  0
   -8.8403   -5.0533   -4.7612 H   0  0  0  0  0  0  0  0  0  0  0  0
   -9.6041   -4.5662   -3.2291 H   0  0  0  0  0  0  0  0  0  0  0  0
   -8.2216   -3.6441   -3.8669 H   0  0  0  0  0  0  0  0  0  0  0  0
   -3.1335   -9.8781   -1.8554 H   0  0  0  0  0  0  0  0  0  0  0  0
   -4.5159  -10.8000   -1.2172 H   0  0  0  0  0  0  0  0  0  0  0  0
   -5.7655  -12.2405   -2.6380 H   0  0  0  0  0  0  0  0  0  0  0  0
   -4.5581  -13.0491   -6.5273 H   0  0  0  0  0  0  0  0  0  0  0  0
   -2.3827   -8.9929   -3.4514 H   0  0  0  0  0  0  0  0  0  0  0  0
   -2.7626  -11.6879   -7.6039 H   0  0  0  0  0  0  0  0  0  0  0  0
   -0.4735  -10.2545   -9.6134 H   0  0  0  0  0  0  0  0  0  0  0  0
   -0.9543  -11.6328   -8.5949 H   0  0  0  0  0  0  0  0  0  0  0  0
   -2.1883  -10.5057   -9.2077 H   0  0  0  0  0  0  0  0  0  0  0  0
   -1.6945   -7.1064   -3.9511 H   0  0  0  0  0  0  0  0  0  0  0  0
   -0.4608   -8.2333   -3.3378 H   0  0  0  0  0  0  0  0  0  0  0  0
    0.0312   -6.7808   -4.2413 H   0  0  0  0  0  0  0  0  0  0  0  0
  1  2  1  0  0  0  0
  1 42  1  0  0  0  0
  1 43  1  0  0  0  0
  1 44  1  0  0  0  0
  2  3  1  0  0  0  0
  2  4  1  0  0  0  0
  2 45  1  0  0  0  0
  3 46  1  0  0  0  0
  3 47  1  0  0  0  0
  3 48  1  0  0  0  0
  4  5  2  0  0  0  0
  4  6  2  0  0  0  0
  4  7  1  0  0  0  0
  7  8  1  0  0  0  0
  8 13  2  0  0  0  0
  8  9  1  0  0  0  0
  9 10  2  0  0  0  0
  9 49  1  0  0  0  0
 10 11  1  0  0  0  0
 10 50  1  0  0  0  0
 11 12  2  0  0  0  0
 11 14  1  0  0  0  0
 12 13  1  0  0  0  0
 12 51  1  0  0  0  0
 13 52  1  0  0  0  0
 14 53  1  0  0  0  0
 14 54  1  0  0  0  0
 14 15  1  0  0  0  0
 15 16  1  0  0  0  0
 15 21  1  0  0  0  0
 16 26  2  0  0  0  0
 16 17  1  0  0  0  0
 17 18  2  0  0  0  0
 17 24  1  0  0  0  0
 18 20  1  0  0  0  0
 18 19  1  0  0  0  0
 20 21  1  0  0  0  0
 20 23  1  0  0  0  0
 21 22  2  0  0  0  0
 23 55  1  0  0  0  0
 23 56  1  0  0  0  0
 23 57  1  0  0  0  0
 24 25  2  0  0  0  0
 25 27  1  0  0  0  0
 25 26  1  0  0  0  0
 27 28  1  0  0  0  0
 27 58  1  0  0  0  0
 27 59  1  0  0  0  0
 28 33  2  0  0  0  0
 28 29  1  0  0  0  0
 29 30  2  0  0  0  0
 29 60  1  0  0  0  0
 30 31  1  0  0  0  0
 31 32  2  0  0  0  0
 31 61  1  0  0  0  0
 32 37  1  0  0  0  0
 32 33  1  0  0  0  0
 33 34  1  0  0  0  0
 34 35  2  0  0  0  0
 34 62  1  0  0  0  0
 35 36  1  0  0  0  0
 35 40  1  0  0  0  0
 36 37  2  0  0  0  0
 36 38  1  0  0  0  0
 37 63  1  0  0  0  0
 38 39  1  0  0  0  0
 39 64  1  0  0  0  0
 39 65  1  0  0  0  0
 39 66  1  0  0  0  0
 40 41  1  0  0  0  0
 41 67  1  0  0  0  0
 41 68  1  0  0  0  0
 41 69  1  0  0  0  0
M  CHG  2   7  -1  19  -1
M  END
$$$$
CHEMBL245648
  -OEChem-07121202283D

 71 75  0     0  0  0  0  0  0999 V2000
    0.8250    0.6290   -0.8538 C   0  0  0  0  0  0  0  0  0  0  0  0
    0.6179   -0.8765   -1.0319 C   0  0  0  0  0  0  0  0  0  0  0  0
    1.4124   -1.6305    0.0363 C   0  0  0  0  0  0  0  0  0  0  0  0
   -1.1452   -1.2684   -0.8634 S   0  0  0  0  0  0  0  0  0  0  0  0
   -1.5965   -0.9414    0.4438 O   0  0  0  0  0  0  0  0  0  0  0  0
   -1.8577   -0.8214   -2.0087 O   0  0  0  0  0  0  0  0  0  0  0  0
   -1.2226   -2.9210   -0.9360 N   0  5  0  0  0  0  0  0  0  0  0  0
   -2.4568   -3.5674   -0.8362 C   0  0  0  0  0  0  0  0  0  0  0  0
   -3.6208   -2.8253   -0.6817 C   0  0  0  0  0  0  0  0  0  0  0  0
   -4.8395   -3.4675   -0.5838 C   0  0  0  0  0  0  0  0  0  0  0  0
   -4.9017   -4.8479   -0.6389 C   0  0  0  0  0  0  0  0  0  0  0  0
   -3.7449   -5.5897   -0.7926 C   0  0  0  0  0  0  0  0  0  0  0  0
   -2.5235   -4.9536   -0.8969 C   0  0  0  0  0  0  0  0  0  0  0  0
   -6.2332   -5.5453   -0.5308 C   0  0  0  0  0  0  0  0  0  0  0  0
   -6.8451   -5.6384   -1.8587 N   0  0  0  0  0  0  0  0  0  0  0  0
   -7.6676   -4.6207   -2.3141 C   0  0  0  0  0  0  0  0  0  0  0  0
   -8.2359   -4.7323   -3.5768 C   0  0  0  0  0  0  0  0  0  0  0  0
   -7.9596   -5.8759   -4.3567 C   0  0  0  0  0  0  0  0  0  0  0  0
   -8.4456   -5.9966   -5.4670 O   0  0  0  0  0  0  0  0  0  0  0  0
   -7.1504   -6.8336   -3.8581 N   0  0  0  0  0  0  0  0  0  0  0  0
   -6.6028   -6.7101   -2.6367 C   0  0  0  0  0  0  0  0  0  0  0  0
   -5.8739   -7.5908   -2.2222 O   0  0  0  0  0  0  0  0  0  0  0  0
   -6.8595   -8.0231   -4.6623 C   0  0  0  0  0  0  0  0  0  0  0  0
   -8.9935   -3.5931   -3.7615 N   0  0  0  0  0  0  0  0  0  0  0  0
   -9.5181   -3.3699   -4.5463 H   0  0  0  0  0  0  0  0  0  0  0  0
   -8.8666   -2.8505   -2.6445 C   0  0  0  0  0  0  0  0  0  0  0  0
   -8.0826   -3.4628   -1.7941 N   0  0  0  0  0  0  0  0  0  0  0  0
   -9.5269   -1.5163   -2.4101 C   0  0  0  0  0  0  0  0  0  0  0  0
  -10.9260   -1.7321   -1.8934 C   0  0  0  0  0  0  0  0  0  0  0  0
  -11.9886   -1.7332   -2.7455 C   0  0  0  0  0  0  0  0  0  0  0  0
  -13.2293   -1.9206   -2.3169 N   0  3  0  0  0  0  0  0  0  0  0  0
  -13.5222   -2.1167   -1.0520 C   0  0  0  0  0  0  0  0  0  0  0  0
  -12.4995   -2.1340   -0.0914 C   0  0  0  0  0  0  0  0  0  0  0  0
  -11.1599   -1.9422   -0.5223 C   0  0  0  0  0  0  0  0  0  0  0  0
  -10.1194   -1.9606    0.4170 C   0  0  0  0  0  0  0  0  0  0  0  0
  -10.4067   -2.1687    1.7357 C   0  0  0  0  0  0  0  0  0  0  0  0
  -11.7295   -2.3648    2.1620 C   0  0  0  0  0  0  0  0  0  0  0  0
  -12.7638   -2.3395    1.2724 C   0  0  0  0  0  0  0  0  0  0  0  0
  -11.9851   -2.5701    3.4813 O   0  0  0  0  0  0  0  0  0  0  0  0
  -13.3507   -2.7635    3.8551 C   0  0  0  0  0  0  0  0  0  0  0  0
   -9.3988   -2.1867    2.6469 O   0  0  0  0  0  0  0  0  0  0  0  0
   -8.0898   -1.8647    2.1728 C   0  0  0  0  0  0  0  0  0  0  0  0
    1.8844    0.8645   -0.9551 H   0  0  0  0  0  0  0  0  0  0  0  0
    0.2590    1.1662   -1.6148 H   0  0  0  0  0  0  0  0  0  0  0  0
    0.4791    0.9287    0.1355 H   0  0  0  0  0  0  0  0  0  0  0  0
    0.9638   -1.1762   -2.0212 H   0  0  0  0  0  0  0  0  0  0  0  0
    1.2649   -2.7030   -0.0907 H   0  0  0  0  0  0  0  0  0  0  0  0
    2.4718   -1.3950   -0.0650 H   0  0  0  0  0  0  0  0  0  0  0  0
    1.0665   -1.3308    1.0255 H   0  0  0  0  0  0  0  0  0  0  0  0
   -3.5728   -1.7472   -0.6379 H   0  0  0  0  0  0  0  0  0  0  0  0
   -5.7449   -2.8911   -0.4638 H   0  0  0  0  0  0  0  0  0  0  0  0
   -3.7970   -6.6676   -0.8353 H   0  0  0  0  0  0  0  0  0  0  0  0
   -1.6208   -5.5333   -1.0214 H   0  0  0  0  0  0  0  0  0  0  0  0
   -6.0869   -6.5472   -0.1271 H   0  0  0  0  0  0  0  0  0  0  0  0
   -6.8875   -4.9787    0.1318 H   0  0  0  0  0  0  0  0  0  0  0  0
   -7.3800   -7.9522   -5.6174 H   0  0  0  0  0  0  0  0  0  0  0  0
   -5.7857   -8.0894   -4.8377 H   0  0  0  0  0  0  0  0  0  0  0  0
   -7.1963   -8.9127   -4.1301 H   0  0  0  0  0  0  0  0  0  0  0  0
   -8.9522   -0.9503   -1.6771 H   0  0  0  0  0  0  0  0  0  0  0  0
   -9.5673   -0.9613   -3.3474 H   0  0  0  0  0  0  0  0  0  0  0  0
  -11.8158   -1.5765   -3.8000 H   0  0  0  0  0  0  0  0  0  0  0  0
  -14.5490   -2.2640   -0.7513 H   0  0  0  0  0  0  0  0  0  0  0  0
   -9.0978   -1.8115    0.0999 H   0  0  0  0  0  0  0  0  0  0  0  0
  -13.7775   -2.4906    1.6129 H   0  0  0  0  0  0  0  0  0  0  0  0
  -13.4144   -2.9161    4.9325 H   0  0  0  0  0  0  0  0  0  0  0  0
  -13.9314   -1.8838    3.5777 H   0  0  0  0  0  0  0  0  0  0  0  0
  -13.7479   -3.6383    3.3402 H   0  0  0  0  0  0  0  0  0  0  0  0
   -7.7880   -2.5907    1.4179 H   0  0  0  0  0  0  0  0  0  0  0  0
   -8.0973   -0.8667    1.7347 H   0  0  0  0  0  0  0  0  0  0  0  0
   -7.3855   -1.8912    3.0043 H   0  0  0  0  0  0  0  0  0  0  0  0
  -13.9509   -1.9122   -2.9650 H   0  0  0  0  0  0  0  0  0  0  0  0
  1  2  1  0  0  0  0
  1 43  1  0  0  0  0
  1 44  1  0  0  0  0
  1 45  1  0  0  0  0
  2  3  1  0  0  0  0
  2  4  1  0  0  0  0
  2 46  1  0  0  0  0
  3 47  1  0  0  0  0
  3 48  1  0  0  0  0
  3 49  1  0  0  0  0
  4  5  2  0  0  0  0
  4  6  2  0  0  0  0
  4  7  1  0  0  0  0
  7  8  1  0  0  0  0
  8 13  2  0  0  0  0
  8  9  1  0  0  0  0
  9 10  2  0  0  0  0
  9 50  1  0  0  0  0
 10 11  1  0  0  0  0
 10 51  1  0  0  0  0
 11 12  2  0  0  0  0
 11 14  1  0  0  0  0
 12 13  1  0  0  0  0
 12 52  1  0  0  0  0
 13 53  1  0  0  0  0
 14 15  1  0  0  0  0
 14 54  1  0  0  0  0
 14 55  1  0  0  0  0
 15 21  1  0  0  0  0
 15 16  1  0  0  0  0
 16 27  1  0  0  0  0
 16 17  2  0  0  0  0
 17 18  1  0  0  0  0
 17 24  1  0  0  0  0
 18 19  2  0  0  0  0
 18 20  1  0  0  0  0
 20 21  1  0  0  0  0
 20 23  1  0  0  0  0
 21 22  2  0  0  0  0
 23 56  1  0  0  0  0
 23 57  1  0  0  0  0
 23 58  1  0  0  0  0
 24 25  1  0  0  0  0
 24 26  1  0  0  0  0
 26 27  2  0  0  0  0
 26 28  1  0  0  0  0
 28 29  1  0  0  0  0
 28 59  1  0  0  0  0
 28 60  1  0  0  0  0
 29 34  2  0  0  0  0
 29 30  1  0  0  0  0
 30 31  2  0  0  0  0
 30 61  1  0  0  0  0
 31 32  1  0  0  0  0
 31 71  1  0  0  0  0
 32 33  2  0  0  0  0
 32 62  1  0  0  0  0
 33 38  1  0  0  0  0
 33 34  1  0  0  0  0
 34 35  1  0  0  0  0
 35 36  2  0  0  0  0
 35 63  1  0  0  0  0
 36 37  1  0  0  0  0
 36 41  1  0  0  0  0
 37 38  2  0  0  0  0
 37 39  1  0  0  0  0
 38 64  1  0  0  0  0
 39 40  1  0  0  0  0
 40 65  1  0  0  0  0
 40 66  1  0  0  0  0
 40 67  1  0  0  0  0
 41 42  1  0  0  0  0
 42 68  1  0  0  0  0
 42 69  1  0  0  0  0
 42 70  1  0  0  0  0
M  CHG  2   7  -1  31   1
M  END
$$$$
CHEMBL245648
  -OEChem-07121202283D

 71 75  0     0  0  0  0  0  0999 V2000
    3.4442   -9.8460    8.9685 C   0  0  0  0  0  0  0  0  0  0  0  0
    3.8199   -8.7750    7.9426 C   0  0  0  0  0  0  0  0  0  0  0  0
    5.1380   -8.1155    8.3532 C   0  0  0  0  0  0  0  0  0  0  0  0
    4.0105   -9.5421    6.3098 S   0  0  0  0  0  0  0  0  0  0  0  0
    5.0856  -10.4710    6.3280 O   0  0  0  0  0  0  0  0  0  0  0  0
    2.7403   -9.9141    5.7926 O   0  0  0  0  0  0  0  0  0  0  0  0
    4.5268   -8.3174    5.3219 N   0  0  0  0  0  0  0  0  0  0  0  0
    3.7206   -7.1945    5.1219 C   0  0  0  0  0  0  0  0  0  0  0  0
    2.3659   -7.3486    4.8559 C   0  0  0  0  0  0  0  0  0  0  0  0
    1.5715   -6.2361    4.6592 C   0  0  0  0  0  0  0  0  0  0  0  0
    2.1234   -4.9699    4.7263 C   0  0  0  0  0  0  0  0  0  0  0  0
    3.4715   -4.8129    4.9909 C   0  0  0  0  0  0  0  0  0  0  0  0
    4.2705   -5.9209    5.1943 C   0  0  0  0  0  0  0  0  0  0  0  0
    1.2536   -3.7584    4.5101 C   0  0  0  0  0  0  0  0  0  0  0  0
    0.8017   -3.2442    5.8053 N   0  0  0  0  0  0  0  0  0  0  0  0
    1.5035   -2.2247    6.4278 C   0  0  0  0  0  0  0  0  0  0  0  0
    1.0548   -1.7543    7.6556 C   0  0  0  0  0  0  0  0  0  0  0  0
   -0.0996   -2.3272    8.2314 C   0  0  0  0  0  0  0  0  0  0  0  0
   -0.5128   -1.9318    9.3067 O   0  0  0  0  0  0  0  0  0  0  0  0
   -0.7402   -3.3178    7.5764 N   0  0  0  0  0  0  0  0  0  0  0  0
   -0.2982   -3.7595    6.3863 C   0  0  0  0  0  0  0  0  0  0  0  0
   -0.9043   -4.6502    5.8224 O   0  0  0  0  0  0  0  0  0  0  0  0
   -1.9390   -3.9168    8.1684 C   0  0  0  0  0  0  0  0  0  0  0  0
    1.9325   -0.7572    8.0314 N   0  0  0  0  0  0  0  0  0  0  0  0
    1.8929   -0.2299    8.8446 H   0  0  0  0  0  0  0  0  0  0  0  0
    2.8550   -0.6560    7.0547 C   0  0  0  0  0  0  0  0  0  0  0  0
    2.5960   -1.5250    6.1111 N   0  0  0  0  0  0  0  0  0  0  0  0
    4.0099    0.3121    7.0492 C   0  0  0  0  0  0  0  0  0  0  0  0
    5.3014   -0.4476    6.8877 C   0  0  0  0  0  0  0  0  0  0  0  0
    6.0271   -0.8233    7.9774 C   0  0  0  0  0  0  0  0  0  0  0  0
    7.1662   -1.4922    7.8630 N   0  0  0  0  0  0  0  0  0  0  0  0
    7.6738   -1.8382    6.7024 C   0  0  0  0  0  0  0  0  0  0  0  0
    7.0042   -1.4992    5.5168 C   0  0  0  0  0  0  0  0  0  0  0  0
    5.7785   -0.7877    5.6088 C   0  0  0  0  0  0  0  0  0  0  0  0
    5.0872   -0.4419    4.4392 C   0  0  0  0  0  0  0  0  0  0  0  0
    5.5991   -0.7987    3.2245 C   0  0  0  0  0  0  0  0  0  0  0  0
    6.8074   -1.5070    3.1324 C   0  0  0  0  0  0  0  0  0  0  0  0
    7.5080   -1.8468    4.2529 C   0  0  0  0  0  0  0  0  0  0  0  0
    7.2923   -1.8490    1.9094 O   0  0  0  0  0  0  0  0  0  0  0  0
    8.5261   -2.5693    1.8789 C   0  0  0  0  0  0  0  0  0  0  0  0
    4.9299   -0.4640    2.0902 O   0  0  0  0  0  0  0  0  0  0  0  0
    3.7650    0.3499    2.2405 C   0  0  0  0  0  0  0  0  0  0  0  0
    3.3296   -9.3851    9.9496 H   0  0  0  0  0  0  0  0  0  0  0  0
    2.5051  -10.3158    8.6760 H   0  0  0  0  0  0  0  0  0  0  0  0
    4.2300  -10.6001    9.0109 H   0  0  0  0  0  0  0  0  0  0  0  0
    3.0340   -8.0208    7.9002 H   0  0  0  0  0  0  0  0  0  0  0  0
    4.9994   -7.5807    9.2929 H   0  0  0  0  0  0  0  0  0  0  0  0
    5.9032   -8.8812    8.4803 H   0  0  0  0  0  0  0  0  0  0  0  0
    5.4503   -7.4146    7.5790 H   0  0  0  0  0  0  0  0  0  0  0  0
    5.3891   -8.3799    4.8821 H   0  0  0  0  0  0  0  0  0  0  0  0
    1.9344   -8.3372    4.8027 H   0  0  0  0  0  0  0  0  0  0  0  0
    0.5182   -6.3552    4.4523 H   0  0  0  0  0  0  0  0  0  0  0  0
    3.8994   -3.8226    5.0426 H   0  0  0  0  0  0  0  0  0  0  0  0
    5.3225   -5.7975    5.4054 H   0  0  0  0  0  0  0  0  0  0  0  0
    1.8257   -2.9880    3.9930 H   0  0  0  0  0  0  0  0  0  0  0  0
    0.3887   -4.0349    3.9071 H   0  0  0  0  0  0  0  0  0  0  0  0
   -2.1515   -3.4362    9.1234 H   0  0  0  0  0  0  0  0  0  0  0  0
   -2.7850   -3.7775    7.4954 H   0  0  0  0  0  0  0  0  0  0  0  0
   -1.7723   -4.9822    8.3269 H   0  0  0  0  0  0  0  0  0  0  0  0
    3.8939    1.0115    6.2212 H   0  0  0  0  0  0  0  0  0  0  0  0
    4.0273    0.8624    7.9899 H   0  0  0  0  0  0  0  0  0  0  0  0
    5.6645   -0.5690    8.9624 H   0  0  0  0  0  0  0  0  0  0  0  0
    8.6056   -2.3826    6.6604 H   0  0  0  0  0  0  0  0  0  0  0  0
    4.1563    0.1025    4.4985 H   0  0  0  0  0  0  0  0  0  0  0  0
    8.4368   -2.3914    4.1690 H   0  0  0  0  0  0  0  0  0  0  0  0
    8.7991   -2.7786    0.8446 H   0  0  0  0  0  0  0  0  0  0  0  0
    9.3077   -1.9710    2.3470 H   0  0  0  0  0  0  0  0  0  0  0  0
    8.4125   -3.5076    2.4218 H   0  0  0  0  0  0  0  0  0  0  0  0
    3.0707   -0.1329    2.9283 H   0  0  0  0  0  0  0  0  0  0  0  0
    4.0510    1.3240    2.6373 H   0  0  0  0  0  0  0  0  0  0  0  0
    3.2846    0.4794    1.2707 H   0  0  0  0  0  0  0  0  0  0  0  0
  1  2  1  0  0  0  0
  1 43  1  0  0  0  0
  1 44  1  0  0  0  0
  1 45  1  0  0  0  0
  2  3  1  0  0  0  0
  2  4  1  0  0  0  0
  2 46  1  0  0  0  0
  3 47  1  0  0  0  0
  3 48  1  0  0  0  0
  3 49  1  0  0  0  0
  4  5  2  0  0  0  0
  4  6  2  0  0  0  0
  4  7  1  0  0  0  0
  7  8  1  0  0  0  0
  7 50  1  0  0  0  0
  8 13  2  0  0  0  0
  8  9  1  0  0  0  0
  9 10  2  0  0  0  0
  9 51  1  0  0  0  0
 10 11  1  0  0  0  0
 10 52  1  0  0  0  0
 11 12  2  0  0  0  0
 11 14  1  0  0  0  0
 12 13  1  0  0  0  0
 12 53  1  0  0  0  0
 13 54  1  0  0  0  0
 14 15  1  0  0  0  0
 14 55  1  0  0  0  0
 14 56  1  0  0  0  0
 15 21  1  0  0  0  0
 15 16  1  0  0  0  0
 16 27  1  0  0  0  0
 16 17  2  0  0  0  0
 17 18  1  0  0  0  0
 17 24  1  0  0  0  0
 18 19  2  0  0  0  0
 18 20  1  0  0  0  0
 20 21  1  0  0  0  0
 20 23  1  0  0  0  0
 21 22  2  0  0  0  0
 23 57  1  0  0  0  0
 23 58  1  0  0  0  0
 23 59  1  0  0  0  0
 24 25  1  0  0  0  0
 24 26  1  0  0  0  0
 26 27  2  0  0  0  0
 26 28  1  0  0  0  0
 28 29  1  0  0  0  0
 28 60  1  0  0  0  0
 28 61  1  0  0  0  0
 29 34  2  0  0  0  0
 29 30  1  0  0  0  0
 30 31  2  0  0  0  0
 30 62  1  0  0  0  0
 31 32  1  0  0  0  0
 32 33  2  0  0  0  0
 32 63  1  0  0  0  0
 33 38  1  0  0  0  0
 33 34  1  0  0  0  0
 34 35  1  0  0  0  0
 35 36  2  0  0  0  0
 35 64  1  0  0  0  0
 36 37  1  0  0  0  0
 36 41  1  0  0  0  0
 37 38  2  0  0  0  0
 37 39  1  0  0  0  0
 38 65  1  0  0  0  0
 39 40  1  0  0  0  0
 40 66  1  0  0  0  0
 40 67  1  0  0  0  0
 40 68  1  0  0  0  0
 41 42  1  0  0  0  0
 42 69  1  0  0  0  0
 42 70  1  0  0  0  0
 42 71  1  0  0  0  0
M  END
$$$$
CHEMBL245648
  -OEChem-07121202283D

 70 74  0     0  0  0  0  0  0999 V2000
    0.8250    0.6290   -0.8538 C   0  0  0  0  0  0  0  0  0  0  0  0
    0.6179   -0.8765   -1.0319 C   0  0  0  0  0  0  0  0  0  0  0  0
    1.4124   -1.6305    0.0363 C   0  0  0  0  0  0  0  0  0  0  0  0
   -1.1452   -1.2684   -0.8634 S   0  0  0  0  0  0  0  0  0  0  0  0
   -1.5965   -0.9414    0.4438 O   0  0  0  0  0  0  0  0  0  0  0  0
   -1.8577   -0.8214   -2.0087 O   0  0  0  0  0  0  0  0  0  0  0  0
   -1.2226   -2.9210   -0.9360 N   0  5  0  0  0  0  0  0  0  0  0  0
   -2.4568   -3.5674   -0.8362 C   0  0  0  0  0  0  0  0  0  0  0  0
   -3.6208   -2.8253   -0.6817 C   0  0  0  0  0  0  0  0  0  0  0  0
   -4.8395   -3.4675   -0.5838 C   0  0  0  0  0  0  0  0  0  0  0  0
   -4.9017   -4.8479   -0.6389 C   0  0  0  0  0  0  0  0  0  0  0  0
   -3.7449   -5.5897   -0.7926 C   0  0  0  0  0  0  0  0  0  0  0  0
   -2.5235   -4.9536   -0.8969 C   0  0  0  0  0  0  0  0  0  0  0  0
   -6.2332   -5.5453   -0.5308 C   0  0  0  0  0  0  0  0  0  0  0  0
   -6.8451   -5.6384   -1.8587 N   0  0  0  0  0  0  0  0  0  0  0  0
   -7.6676   -4.6207   -2.3141 C   0  0  0  0  0  0  0  0  0  0  0  0
   -8.2359   -4.7323   -3.5768 C   0  0  0  0  0  0  0  0  0  0  0  0
   -7.9596   -5.8759   -4.3567 C   0  0  0  0  0  0  0  0  0  0  0  0
   -8.4456   -5.9966   -5.4670 O   0  0  0  0  0  0  0  0  0  0  0  0
   -7.1504   -6.8336   -3.8581 N   0  0  0  0  0  0  0  0  0  0  0  0
   -6.6028   -6.7101   -2.6367 C   0  0  0  0  0  0  0  0  0  0  0  0
   -5.8739   -7.5908   -2.2222 O   0  0  0  0  0  0  0  0  0  0  0  0
   -6.8595   -8.0231   -4.6623 C   0  0  0  0  0  0  0  0  0  0  0  0
   -8.9935   -3.5931   -3.7615 N   0  0  0  0  0  0  0  0  0  0  0  0
   -9.5181   -3.3699   -4.5463 H   0  0  0  0  0  0  0  0  0  0  0  0
   -8.8666   -2.8505   -2.6445 C   0  0  0  0  0  0  0  0  0  0  0  0
   -8.0826   -3.4628   -1.7941 N   0  0  0  0  0  0  0  0  0  0  0  0
   -9.5269   -1.5163   -2.4101 C   0  0  0  0  0  0  0  0  0  0  0  0
  -10.9260   -1.7321   -1.8934 C   0  0  0  0  0  0  0  0  0  0  0  0
  -11.9886   -1.7332   -2.7455 C   0  0  0  0  0  0  0  0  0  0  0  0
  -13.2293   -1.9206   -2.3169 N   0  0  0  0  0  0  0  0  0  0  0  0
  -13.5222   -2.1171   -1.0520 C   0  0  0  0  0  0  0  0  0  0  0  0
  -12.4994   -2.1344   -0.0915 C   0  0  0  0  0  0  0  0  0  0  0  0
  -11.1599   -1.9422   -0.5223 C   0  0  0  0  0  0  0  0  0  0  0  0
  -10.1194   -1.9606    0.4170 C   0  0  0  0  0  0  0  0  0  0  0  0
  -10.4067   -2.1687    1.7357 C   0  0  0  0  0  0  0  0  0  0  0  0
  -11.7295   -2.3648    2.1620 C   0  0  0  0  0  0  0  0  0  0  0  0
  -12.7637   -2.3403    1.2723 C   0  0  0  0  0  0  0  0  0  0  0  0
  -11.9851   -2.5701    3.4813 O   0  0  0  0  0  0  0  0  0  0  0  0
  -13.3507   -2.7635    3.8551 C   0  0  0  0  0  0  0  0  0  0  0  0
   -9.3988   -2.1867    2.6469 O   0  0  0  0  0  0  0  0  0  0  0  0
   -8.0898   -1.8647    2.1728 C   0  0  0  0  0  0  0  0  0  0  0  0
    1.8844    0.8645   -0.9551 H   0  0  0  0  0  0  0  0  0  0  0  0
    0.2590    1.1662   -1.6148 H   0  0  0  0  0  0  0  0  0  0  0  0
    0.4791    0.9287    0.1355 H   0  0  0  0  0  0  0  0  0  0  0  0
    0.9638   -1.1762   -2.0212 H   0  0  0  0  0  0  0  0  0  0  0  0
    1.0665   -1.3308    1.0255 H   0  0  0  0  0  0  0  0  0  0  0  0
    1.2649   -2.7030   -0.0907 H   0  0  0  0  0  0  0  0  0  0  0  0
    2.4718   -1.3950   -0.0650 H   0  0  0  0  0  0  0  0  0  0  0  0
   -3.5728   -1.7472   -0.6379 H   0  0  0  0  0  0  0  0  0  0  0  0
   -5.7449   -2.8911   -0.4638 H   0  0  0  0  0  0  0  0  0  0  0  0
   -3.7970   -6.6676   -0.8353 H   0  0  0  0  0  0  0  0  0  0  0  0
   -1.6208   -5.5333   -1.0214 H   0  0  0  0  0  0  0  0  0  0  0  0
   -6.0869   -6.5472   -0.1271 H   0  0  0  0  0  0  0  0  0  0  0  0
   -6.8875   -4.9787    0.1318 H   0  0  0  0  0  0  0  0  0  0  0  0
   -7.3800   -7.9522   -5.6174 H   0  0  0  0  0  0  0  0  0  0  0  0
   -5.7857   -8.0894   -4.8377 H   0  0  0  0  0  0  0  0  0  0  0  0
   -7.1963   -8.9127   -4.1301 H   0  0  0  0  0  0  0  0  0  0  0  0
   -8.9522   -0.9503   -1.6771 H   0  0  0  0  0  0  0  0  0  0  0  0
   -9.5673   -0.9613   -3.3474 H   0  0  0  0  0  0  0  0  0  0  0  0
  -11.8158   -1.5765   -3.8000 H   0  0  0  0  0  0  0  0  0  0  0  0
  -14.5489   -2.2648   -0.7514 H   0  0  0  0  0  0  0  0  0  0  0  0
   -9.0978   -1.8115    0.0999 H   0  0  0  0  0  0  0  0  0  0  0  0
  -13.7774   -2.4919    1.6127 H   0  0  0  0  0  0  0  0  0  0  0  0
  -13.9314   -1.8838    3.5777 H   0  0  0  0  0  0  0  0  0  0  0  0
  -13.7479   -3.6383    3.3402 H   0  0  0  0  0  0  0  0  0  0  0  0
  -13.4144   -2.9161    4.9325 H   0  0  0  0  0  0  0  0  0  0  0  0
   -7.7880   -2.5907    1.4179 H   0  0  0  0  0  0  0  0  0  0  0  0
   -8.0973   -0.8667    1.7347 H   0  0  0  0  0  0  0  0  0  0  0  0
   -7.3855   -1.8912    3.0043 H   0  0  0  0  0  0  0  0  0  0  0  0
  1  2  1  0  0  0  0
  1 43  1  0  0  0  0
  1 44  1  0  0  0  0
  1 45  1  0  0  0  0
  2  3  1  0  0  0  0
  2  4  1  0  0  0  0
  2 46  1  0  0  0  0
  3 47  1  0  0  0  0
  3 48  1  0  0  0  0
  3 49  1  0  0  0  0
  4  5  2  0  0  0  0
  4  6  2  0  0  0  0
  4  7  1  0  0  0  0
  7  8  1  0  0  0  0
  8 13  2  0  0  0  0
  8  9  1  0  0  0  0
  9 10  2  0  0  0  0
  9 50  1  0  0  0  0
 10 11  1  0  0  0  0
 10 51  1  0  0  0  0
 11 12  2  0  0  0  0
 11 14  1  0  0  0  0
 12 13  1  0  0  0  0
 12 52  1  0  0  0  0
 13 53  1  0  0  0  0
 14 15  1  0  0  0  0
 14 54  1  0  0  0  0
 14 55  1  0  0  0  0
 15 21  1  0  0  0  0
 15 16  1  0  0  0  0
 16 27  1  0  0  0  0
 16 17  2  0  0  0  0
 17 18  1  0  0  0  0
 17 24  1  0  0  0  0
 18 19  2  0  0  0  0
 18 20  1  0  0  0  0
 20 21  1  0  0  0  0
 20 23  1  0  0  0  0
 21 22  2  0  0  0  0
 23 56  1  0  0  0  0
 23 57  1  0  0  0  0
 23 58  1  0  0  0  0
 24 25  1  0  0  0  0
 24 26  1  0  0  0  0
 26 27  2  0  0  0  0
 26 28  1  0  0  0  0
 28 29  1  0  0  0  0
 28 59  1  0  0  0  0
 28 60  1  0  0  0  0
 29 34  2  0  0  0  0
 29 30  1  0  0  0  0
 30 31  2  0  0  0  0
 30 61  1  0  0  0  0
 31 32  1  0  0  0  0
 32 33  2  0  0  0  0
 32 62  1  0  0  0  0
 33 38  1  0  0  0  0
 33 34  1  0  0  0  0
 34 35  1  0  0  0  0
 35 36  2  0  0  0  0
 35 63  1  0  0  0  0
 36 37  1  0  0  0  0
 36 41  1  0  0  0  0
 37 38  2  0  0  0  0
 37 39  1  0  0  0  0
 38 64  1  0  0  0  0
 39 40  1  0  0  0  0
 40 65  1  0  0  0  0
 40 66  1  0  0  0  0
 40 67  1  0  0  0  0
 41 42  1  0  0  0  0
 42 68  1  0  0  0  0
 42 69  1  0  0  0  0
 42 70  1  0  0  0  0
M  CHG  1   7  -1
M  END
$$$$
CHEMBL34276
  -OEChem-07121202283D

 72 78  0     1  0  0  0  0  0999 V2000
   -0.9761   -0.7663    0.7118 C   0  0  0  0  0  0  0  0  0  0  0  0
    0.0028   -0.0042    0.0025 O   0  0  0  0  0  0  0  0  0  0  0  0
    0.6065   -0.6073   -1.0552 C   0  0  0  0  0  0  0  0  0  0  0  0
    0.2598   -1.9037   -1.4067 C   0  0  0  0  0  0  0  0  0  0  0  0
    0.8746   -2.5144   -2.4826 C   0  0  0  0  0  0  0  0  0  0  0  0
    1.8352   -1.8346   -3.2086 C   0  0  0  0  0  0  0  0  0  0  0  0
    2.1828   -0.5426   -2.8600 C   0  0  0  0  0  0  0  0  0  0  0  0
    1.5665    0.0746   -1.7888 C   0  0  0  0  0  0  0  0  0  0  0  0
    2.5046   -2.5033   -4.3815 C   0  0  2  0  0  0  0  0  0  0  0  0
    3.1131   -1.7790   -4.9230 H   0  0  0  0  0  0  0  0  0  0  0  0
    1.4600   -3.0890   -5.3042 C   0  0  0  0  0  0  0  0  0  0  0  0
    1.5097   -4.3517   -5.7809 C   0  0  0  0  0  0  0  0  0  0  0  0
    0.3451   -4.5322   -6.6240 C   0  0  0  0  0  0  0  0  0  0  0  0
   -0.1230   -5.6150   -7.3745 C   0  0  0  0  0  0  0  0  0  0  0  0
   -1.2920   -5.4285   -8.0701 C   0  0  0  0  0  0  0  0  0  0  0  0
   -1.9841   -4.2288   -8.0387 C   0  0  0  0  0  0  0  0  0  0  0  0
   -1.5430   -3.1406   -7.3058 C   0  0  0  0  0  0  0  0  0  0  0  0
   -0.3590   -3.3012   -6.5889 C   0  0  0  0  0  0  0  0  0  0  0  0
    0.3445   -2.4538   -5.7821 N   0  0  0  0  0  0  0  0  0  0  0  0
    0.0922   -1.5398   -5.5778 H   0  0  0  0  0  0  0  0  0  0  0  0
    2.5937   -5.3485   -5.4594 C   0  0  0  0  0  0  0  0  0  0  0  0
    3.8074   -4.5967   -4.8950 C   0  0  1  0  0  0  0  0  0  0  0  0
    4.3045   -4.0694   -5.7093 H   0  0  0  0  0  0  0  0  0  0  0  0
    3.3527   -3.6179   -3.9077 N   0  0  0  0  0  0  0  0  0  0  0  0
    3.6630   -3.6897   -2.6117 C   0  0  0  0  0  0  0  0  0  0  0  0
    3.1759   -2.8656   -1.8672 O   0  0  0  0  0  0  0  0  0  0  0  0
    4.5696   -4.7172   -2.0160 C   0  0  0  0  0  0  0  0  0  0  0  0
    5.1081   -5.6185   -3.0209 N   0  0  0  0  0  0  0  0  0  0  0  0
    4.7672   -5.5727   -4.2946 C   0  0  0  0  0  0  0  0  0  0  0  0
    5.2875   -6.3836   -5.0312 O   0  0  0  0  0  0  0  0  0  0  0  0
    6.0691   -6.6372   -2.5905 C   0  0  2  0  0  0  0  0  0  0  0  0
    6.3787   -7.2469   -3.4393 H   0  0  0  0  0  0  0  0  0  0  0  0
    5.4501   -7.5269   -1.4881 C   0  0  0  0  0  0  0  0  0  0  0  0
    6.6363   -7.7505   -0.5167 C   0  0  0  0  0  0  0  0  0  0  0  0
    7.3375   -6.4412   -0.5295 N   0  3  2  0  0  0  0  0  0  0  0  0
    7.2938   -5.9732   -1.9342 C   0  0  0  0  0  0  0  0  0  0  0  0
    8.7310   -6.6087   -0.0958 C   0  0  0  0  0  0  0  0  0  0  0  0
    8.7601   -7.0188    1.3540 C   0  0  0  0  0  0  0  0  0  0  0  0
    8.8049   -6.0553    2.3442 C   0  0  0  0  0  0  0  0  0  0  0  0
    8.8315   -6.4315    3.6741 C   0  0  0  0  0  0  0  0  0  0  0  0
    8.8129   -7.7713    4.0138 C   0  0  0  0  0  0  0  0  0  0  0  0
    8.7672   -8.7349    3.0237 C   0  0  0  0  0  0  0  0  0  0  0  0
    8.7362   -8.3585    1.6939 C   0  0  0  0  0  0  0  0  0  0  0  0
   -1.7827   -1.0434    0.0331 H   0  0  0  0  0  0  0  0  0  0  0  0
   -0.5135   -1.6678    1.1136 H   0  0  0  0  0  0  0  0  0  0  0  0
   -1.3787   -0.1691    1.5299 H   0  0  0  0  0  0  0  0  0  0  0  0
   -0.4900   -2.4353   -0.8395 H   0  0  0  0  0  0  0  0  0  0  0  0
    0.6050   -3.5236   -2.7566 H   0  0  0  0  0  0  0  0  0  0  0  0
    2.9337   -0.0139   -3.4284 H   0  0  0  0  0  0  0  0  0  0  0  0
    1.8352    1.0854   -1.5196 H   0  0  0  0  0  0  0  0  0  0  0  0
    0.4100   -6.5538   -7.4058 H   0  0  0  0  0  0  0  0  0  0  0  0
   -1.6844   -6.2429   -8.6609 H   0  0  0  0  0  0  0  0  0  0  0  0
   -2.8988   -4.1395   -8.6058 H   0  0  0  0  0  0  0  0  0  0  0  0
   -2.0912   -2.2102   -7.2903 H   0  0  0  0  0  0  0  0  0  0  0  0
    2.2278   -6.0597   -4.7188 H   0  0  0  0  0  0  0  0  0  0  0  0
    2.8824   -5.8793   -6.3666 H   0  0  0  0  0  0  0  0  0  0  0  0
    5.3950   -4.2127   -1.5138 H   0  0  0  0  0  0  0  0  0  0  0  0
    4.0121   -5.2982   -1.2813 H   0  0  0  0  0  0  0  0  0  0  0  0
    4.6335   -7.0076   -0.9865 H   0  0  0  0  0  0  0  0  0  0  0  0
    5.1082   -8.4746   -1.9040 H   0  0  0  0  0  0  0  0  0  0  0  0
    6.2748   -7.9836    0.4848 H   0  0  0  0  0  0  0  0  0  0  0  0
    7.2907   -8.5410   -0.8842 H   0  0  0  0  0  0  0  0  0  0  0  0
    8.2027   -6.2734   -2.4555 H   0  0  0  0  0  0  0  0  0  0  0  0
    7.1876   -4.8888   -1.9618 H   0  0  0  0  0  0  0  0  0  0  0  0
    9.2099   -7.3785   -0.7009 H   0  0  0  0  0  0  0  0  0  0  0  0
    9.2652   -5.6663   -0.2176 H   0  0  0  0  0  0  0  0  0  0  0  0
    8.8195   -5.0085    2.0787 H   0  0  0  0  0  0  0  0  0  0  0  0
    8.8673   -5.6787    4.4476 H   0  0  0  0  0  0  0  0  0  0  0  0
    8.8344   -8.0653    5.0528 H   0  0  0  0  0  0  0  0  0  0  0  0
    8.7530   -9.7817    3.2891 H   0  0  0  0  0  0  0  0  0  0  0  0
    8.6967   -9.1113    0.9204 H   0  0  0  0  0  0  0  0  0  0  0  0
    6.8611   -5.7855    0.0715 H   0  0  0  0  0  0  0  0  0  0  0  0
  1  2  1  0  0  0  0
  1 44  1  0  0  0  0
  1 45  1  0  0  0  0
  1 46  1  0  0  0  0
  2  3  1  0  0  0  0
  3  8  2  0  0  0  0
  3  4  1  0  0  0  0
  4  5  2  0  0  0  0
  4 47  1  0  0  0  0
  5  6  1  0  0  0  0
  5 48  1  0  0  0  0
  6  7  2  0  0  0  0
  6  9  1  0  0  0  0
  7  8  1  0  0  0  0
  7 49  1  0  0  0  0
  8 50  1  0  0  0  0
  9 10  1  0  0  0  0
  9 24  1  0  0  0  0
  9 11  1  0  0  0  0
 11 19  1  0  0  0  0
 11 12  2  0  0  0  0
 12 13  1  0  0  0  0
 12 21  1  0  0  0  0
 13 18  2  0  0  0  0
 13 14  1  0  0  0  0
 14 15  2  0  0  0  0
 14 51  1  0  0  0  0
 15 16  1  0  0  0  0
 15 52  1  0  0  0  0
 16 17  2  0  0  0  0
 16 53  1  0  0  0  0
 17 18  1  0  0  0  0
 17 54  1  0  0  0  0
 18 19  1  0  0  0  0
 19 20  1  0  0  0  0
 21 22  1  0  0  0  0
 21 55  1  0  0  0  0
 21 56  1  0  0  0  0
 22 23  1  0  0  0  0
 22 29  1  0  0  0  0
 22 24  1  0  0  0  0
 24 25  1  0  0  0  0
 25 26  2  0  0  0  0
 25 27  1  0  0  0  0
 27 28  1  0  0  0  0
 27 57  1  0  0  0  0
 27 58  1  0  0  0  0
 28 29  1  0  0  0  0
 28 31  1  0  0  0  0
 29 30  2  0  0  0  0
 31 32  1  0  0  0  0
 31 36  1  0  0  0  0
 31 33  1  0  0  0  0
 33 34  1  0  0  0  0
 33 59  1  0  0  0  0
 33 60  1  0  0  0  0
 34 35  1  0  0  0  0
 34 61  1  0  0  0  0
 34 62  1  0  0  0  0
 35 36  1  0  0  0  0
 35 37  1  0  0  0  0
 35 72  1  0  0  0  0
 36 63  1  0  0  0  0
 36 64  1  0  0  0  0
 37 38  1  0  0  0  0
 37 65  1  0  0  0  0
 37 66  1  0  0  0  0
 38 43  2  0  0  0  0
 38 39  1  0  0  0  0
 39 40  2  0  0  0  0
 39 67  1  0  0  0  0
 40 41  1  0  0  0  0
 40 68  1  0  0  0  0
 41 42  2  0  0  0  0
 41 69  1  0  0  0  0
 42 43  1  0  0  0  0
 42 70  1  0  0  0  0
 43 71  1  0  0  0  0
M  CHG  1  35   1
M  END
$$$$
CHEMBL34276
  -OEChem-07121202283D

 71 77  0     1  0  0  0  0  0999 V2000
   -0.1120   -0.7440   -1.2150 C   0  0  0  0  0  0  0  0  0  0  0  0
    0.0013   -0.0042    0.0024 O   0  0  0  0  0  0  0  0  0  0  0  0
    0.6250   -0.6185    1.0419 C   0  0  0  0  0  0  0  0  0  0  0  0
    1.1229   -1.9047    0.8915 C   0  0  0  0  0  0  0  0  0  0  0  0
    1.7569   -2.5268    1.9495 C   0  0  0  0  0  0  0  0  0  0  0  0
    1.8951   -1.8688    3.1577 C   0  0  0  0  0  0  0  0  0  0  0  0
    1.3993   -0.5872    3.3103 C   0  0  0  0  0  0  0  0  0  0  0  0
    0.7700    0.0416    2.2534 C   0  0  0  0  0  0  0  0  0  0  0  0
    2.5867   -2.5500    4.3104 C   0  0  2  0  0  0  0  0  0  0  0  0
    2.7403   -1.8393    5.1224 H   0  0  0  0  0  0  0  0  0  0  0  0
    3.9170   -3.1060    3.8555 C   0  0  0  0  0  0  0  0  0  0  0  0
    4.3247   -4.3679    4.1116 C   0  0  0  0  0  0  0  0  0  0  0  0
    5.6396   -4.5161    3.5212 C   0  0  0  0  0  0  0  0  0  0  0  0
    6.5404   -5.5843    3.4694 C   0  0  0  0  0  0  0  0  0  0  0  0
    7.7241   -5.3660    2.8088 C   0  0  0  0  0  0  0  0  0  0  0  0
    8.0240   -4.1495    2.2179 C   0  0  0  0  0  0  0  0  0  0  0  0
    7.1520   -3.0753    2.2551 C   0  0  0  0  0  0  0  0  0  0  0  0
    5.9419   -3.2680    2.9186 C   0  0  0  0  0  0  0  0  0  0  0  0
    4.8784   -2.4414    3.1413 N   0  0  0  0  0  0  0  0  0  0  0  0
    4.8133   -1.5221    2.8390 H   0  0  0  0  0  0  0  0  0  0  0  0
    3.5201   -5.3928    4.8695 C   0  0  0  0  0  0  0  0  0  0  0  0
    2.4131   -4.6737    5.6533 C   0  0  1  0  0  0  0  0  0  0  0  0
    2.8616   -4.1562    6.5013 H   0  0  0  0  0  0  0  0  0  0  0  0
    1.7700   -3.6872    4.7855 N   0  0  0  0  0  0  0  0  0  0  0  0
    0.4936   -3.7713    4.4048 C   0  0  0  0  0  0  0  0  0  0  0  0
    0.0794   -2.9378    3.6272 O   0  0  0  0  0  0  0  0  0  0  0  0
   -0.4593   -4.8232    4.8713 C   0  0  0  0  0  0  0  0  0  0  0  0
    0.1559   -5.7343    5.8220 N   0  0  0  0  0  0  0  0  0  0  0  0
    1.4286   -5.6755    6.1645 C   0  0  0  0  0  0  0  0  0  0  0  0
    1.8192   -6.4966    6.9671 O   0  0  0  0  0  0  0  0  0  0  0  0
   -0.6812   -6.7783    6.4185 C   0  0  2  0  0  0  0  0  0  0  0  0
   -0.0914   -7.3926    7.0987 H   0  0  0  0  0  0  0  0  0  0  0  0
   -1.3128   -7.6560    5.3136 C   0  0  0  0  0  0  0  0  0  0  0  0
   -2.7433   -7.9128    5.8506 C   0  0  0  0  0  0  0  0  0  0  0  0
   -3.1031   -6.6214    6.4903 N   0  0  2  0  0  0  0  0  0  0  0  0
   -1.8719   -6.1476    7.1640 C   0  0  0  0  0  0  0  0  0  0  0  0
   -4.1955   -6.7988    7.4563 C   0  0  0  0  0  0  0  0  0  0  0  0
   -5.4730   -7.1073    6.7188 C   0  0  0  0  0  0  0  0  0  0  0  0
   -6.3021   -6.0786    6.3123 C   0  0  0  0  0  0  0  0  0  0  0  0
   -7.4739   -6.3616    5.6359 C   0  0  0  0  0  0  0  0  0  0  0  0
   -7.8165   -7.6733    5.3656 C   0  0  0  0  0  0  0  0  0  0  0  0
   -6.9869   -8.7019    5.7713 C   0  0  0  0  0  0  0  0  0  0  0  0
   -5.8130   -8.4187    6.4440 C   0  0  0  0  0  0  0  0  0  0  0  0
   -0.6770   -1.6582   -1.0333 H   0  0  0  0  0  0  0  0  0  0  0  0
   -0.6286   -0.1397   -1.9606 H   0  0  0  0  0  0  0  0  0  0  0  0
    0.8833   -0.9984   -1.5796 H   0  0  0  0  0  0  0  0  0  0  0  0
    1.0146   -2.4193   -0.0519 H   0  0  0  0  0  0  0  0  0  0  0  0
    2.1447   -3.5280    1.8329 H   0  0  0  0  0  0  0  0  0  0  0  0
    1.5082   -0.0755    4.2551 H   0  0  0  0  0  0  0  0  0  0  0  0
    0.3868    1.0444    2.3717 H   0  0  0  0  0  0  0  0  0  0  0  0
    6.3158   -6.5361    3.9278 H   0  0  0  0  0  0  0  0  0  0  0  0
    8.4445   -6.1683    2.7482 H   0  0  0  0  0  0  0  0  0  0  0  0
    8.9709   -4.0352    1.7112 H   0  0  0  0  0  0  0  0  0  0  0  0
    7.3980   -2.1315    1.7914 H   0  0  0  0  0  0  0  0  0  0  0  0
    3.0725   -6.0971    4.1683 H   0  0  0  0  0  0  0  0  0  0  0  0
    4.1698   -5.9275    5.5624 H   0  0  0  0  0  0  0  0  0  0  0  0
   -1.3146   -4.3414    5.3450 H   0  0  0  0  0  0  0  0  0  0  0  0
   -0.8080   -5.3926    4.0097 H   0  0  0  0  0  0  0  0  0  0  0  0
   -1.3472   -7.1181    4.3662 H   0  0  0  0  0  0  0  0  0  0  0  0
   -0.7670   -8.5934    5.2066 H   0  0  0  0  0  0  0  0  0  0  0  0
   -3.4264   -8.1402    5.0321 H   0  0  0  0  0  0  0  0  0  0  0  0
   -2.7397   -8.7181    6.5851 H   0  0  0  0  0  0  0  0  0  0  0  0
   -1.8700   -6.4686    8.2057 H   0  0  0  0  0  0  0  0  0  0  0  0
   -1.8119   -5.0607    7.1075 H   0  0  0  0  0  0  0  0  0  0  0  0
   -3.9559   -7.6227    8.1284 H   0  0  0  0  0  0  0  0  0  0  0  0
   -4.3216   -5.8833    8.0342 H   0  0  0  0  0  0  0  0  0  0  0  0
   -6.0345   -5.0538    6.5234 H   0  0  0  0  0  0  0  0  0  0  0  0
   -8.1220   -5.5580    5.3188 H   0  0  0  0  0  0  0  0  0  0  0  0
   -8.7324   -7.8944    4.8377 H   0  0  0  0  0  0  0  0  0  0  0  0
   -7.2547   -9.7268    5.5605 H   0  0  0  0  0  0  0  0  0  0  0  0
   -5.1630   -9.2222    6.7577 H   0  0  0  0  0  0  0  0  0  0  0  0
  1  2  1  0  0  0  0
  1 44  1  0  0  0  0
  1 45  1  0  0  0  0
  1 46  1  0  0  0  0
  2  3  1  0  0  0  0
  3  8  2  0  0  0  0
  3  4  1  0  0  0  0
  4  5  2  0  0  0  0
  4 47  1  0  0  0  0
  5  6  1  0  0  0  0
  5 48  1  0  0  0  0
  6  7  2  0  0  0  0
  6  9  1  0  0  0  0
  7  8  1  0  0  0  0
  7 49  1  0  0  0  0
  8 50  1  0  0  0  0
  9 10  1  0  0  0  0
  9 24  1  0  0  0  0
  9 11  1  0  0  0  0
 11 19  1  0  0  0  0
 11 12  2  0  0  0  0
 12 13  1  0  0  0  0
 12 21  1  0  0  0  0
 13 18  2  0  0  0  0
 13 14  1  0  0  0  0
 14 15  2  0  0  0  0
 14 51  1  0  0  0  0
 15 16  1  0  0  0  0
 15 52  1  0  0  0  0
 16 17  2  0  0  0  0
 16 53  1  0  0  0  0
 17 18  1  0  0  0  0
 17 54  1  0  0  0  0
 18 19  1  0  0  0  0
 19 20  1  0  0  0  0
 21 22  1  0  0  0  0
 21 55  1  0  0  0  0
 21 56  1  0  0  0  0
 22 23  1  0  0  0  0
 22 29  1  0  0  0  0
 22 24  1  0  0  0  0
 24 25  1  0  0  0  0
 25 26  2  0  0  0  0
 25 27  1  0  0  0  0
 27 28  1  0  0  0  0
 27 57  1  0  0  0  0
 27 58  1  0  0  0  0
 28 29  1  0  0  0  0
 28 31  1  0  0  0  0
 29 30  2  0  0  0  0
 31 32  1  0  0  0  0
 31 36  1  0  0  0  0
 31 33  1  0  0  0  0
 33 34  1  0  0  0  0
 33 59  1  0  0  0  0
 33 60  1  0  0  0  0
 34 35  1  0  0  0  0
 34 61  1  0  0  0  0
 34 62  1  0  0  0  0
 35 36  1  0  0  0  0
 35 37  1  0  0  0  0
 36 63  1  0  0  0  0
 36 64  1  0  0  0  0
 37 38  1  0  0  0  0
 37 65  1  0  0  0  0
 37 66  1  0  0  0  0
 38 43  2  0  0  0  0
 38 39  1  0  0  0  0
 39 40  2  0  0  0  0
 39 67  1  0  0  0  0
 40 41  1  0  0  0  0
 40 68  1  0  0  0  0
 41 42  2  0  0  0  0
 41 69  1  0  0  0  0
 42 43  1  0  0  0  0
 42 70  1  0  0  0  0
 43 71  1  0  0  0  0
M  END
$$$$
CHEMBL363668
  -OEChem-07121202283D

 73 74  0     0  0  0  0  0  0999 V2000
   -0.0187    1.5258    0.0104 C   0  0  0  0  0  0  0  0  0  0  0  0
    0.0021   -0.0041    0.0020 C   0  0  0  0  0  0  0  0  0  0  0  0
    0.7074   -0.4901   -1.2379 C   0  0  0  0  0  0  0  0  0  0  0  0
   -0.0175   -0.8118   -2.3484 C   0  0  0  0  0  0  0  0  0  0  0  0
    0.6328   -1.2643   -3.5043 C   0  0  0  0  0  0  0  0  0  0  0  0
    2.0344   -1.3841   -3.5130 C   0  0  0  0  0  0  0  0  0  0  0  0
    2.7558   -1.0536   -2.3793 C   0  0  0  0  0  0  0  0  0  0  0  0
    2.0952   -0.6026   -1.2452 C   0  0  0  0  0  0  0  0  0  0  0  0
    2.8049   -0.2742   -0.1365 O   0  0  0  0  0  0  0  0  0  0  0  0
    4.2252   -0.4125   -0.2108 C   0  0  0  0  0  0  0  0  0  0  0  0
    4.8390   -0.0051    1.1038 C   0  0  0  0  0  0  0  0  0  0  0  0
    4.0195    0.4134    2.1403 C   0  0  0  0  0  0  0  0  0  0  0  0
    4.5883    0.7871    3.3475 C   0  0  0  0  0  0  0  0  0  0  0  0
    5.9675    0.7282    3.4750 C   0  0  0  0  0  0  0  0  0  0  0  0
    6.7293    0.2978    2.3914 C   0  0  0  0  0  0  0  0  0  0  0  0
    6.1444   -0.0565    1.2537 N   0  0  0  0  0  0  0  0  0  0  0  0
    8.2045    0.2297    2.5114 C   0  0  0  0  0  0  0  0  0  0  0  0
    8.7448    0.5486    3.5521 O   0  0  0  0  0  0  0  0  0  0  0  0
    8.9471   -0.1860    1.4663 N   0  0  0  0  0  0  0  0  0  0  0  0
   10.4058   -0.2534    1.5850 C   0  0  0  0  0  0  0  0  0  0  0  0
   11.0021   -0.7522    0.2672 C   0  0  0  0  0  0  0  0  0  0  0  0
   12.5255   -0.8226    0.3911 C   0  0  0  0  0  0  0  0  0  0  0  0
   13.1218   -1.3215   -0.9266 C   0  0  0  0  0  0  0  0  0  0  0  0
   14.6452   -1.3918   -0.8027 C   0  0  0  0  0  0  0  0  0  0  0  0
   15.2415   -1.8907   -2.1204 C   0  0  0  0  0  0  0  0  0  0  0  0
   16.7649   -1.9611   -1.9965 C   0  0  0  0  0  0  0  0  0  0  0  0
   17.3612   -2.4599   -3.3143 C   0  0  0  0  0  0  0  0  0  0  0  0
   18.8846   -2.5303   -3.1904 C   0  0  0  0  0  0  0  0  0  0  0  0
   19.4720   -3.0217   -4.4883 C   0  0  0  0  0  0  0  0  0  0  0  0
   18.7439   -3.2892   -5.4206 O   0  0  0  0  0  0  0  0  0  0  0  0
   20.8064   -3.1638   -4.6130 N   0  0  0  0  0  0  0  0  0  0  0  0
   21.3583   -3.6255   -5.8325 O   0  0  0  0  0  0  0  0  0  0  0  0
    2.6747   -1.8213   -4.6256 O   0  0  0  0  0  0  0  0  0  0  0  0
   -0.1432   -1.6113   -4.6974 C   0  0  0  0  0  0  0  0  0  0  0  0
    0.4229   -2.0028   -5.6966 O   0  0  0  0  0  0  0  0  0  0  0  0
   -1.6446   -1.4820   -4.6837 C   0  0  0  0  0  0  0  0  0  0  0  0
    1.0039    1.9031    0.0027 H   0  0  0  0  0  0  0  0  0  0  0  0
   -0.5459    1.8868   -0.8726 H   0  0  0  0  0  0  0  0  0  0  0  0
   -0.5289    1.8773    0.9072 H   0  0  0  0  0  0  0  0  0  0  0  0
    0.5293   -0.3651    0.8851 H   0  0  0  0  0  0  0  0  0  0  0  0
   -1.0205   -0.3814    0.0098 H   0  0  0  0  0  0  0  0  0  0  0  0
   -1.0933   -0.7180   -2.3362 H   0  0  0  0  0  0  0  0  0  0  0  0
    3.8321   -1.1433   -2.3782 H   0  0  0  0  0  0  0  0  0  0  0  0
    4.4785   -1.4511   -0.4237 H   0  0  0  0  0  0  0  0  0  0  0  0
    4.6114    0.2259   -1.0055 H   0  0  0  0  0  0  0  0  0  0  0  0
    2.9482    0.4482    2.0084 H   0  0  0  0  0  0  0  0  0  0  0  0
    3.9713    1.1171    4.1702 H   0  0  0  0  0  0  0  0  0  0  0  0
    6.4445    1.0123    4.4014 H   0  0  0  0  0  0  0  0  0  0  0  0
    8.5158   -0.4405    0.6356 H   0  0  0  0  0  0  0  0  0  0  0  0
   10.7983    0.7385    1.8090 H   0  0  0  0  0  0  0  0  0  0  0  0
   10.6737   -0.9400    2.3880 H   0  0  0  0  0  0  0  0  0  0  0  0
   10.6096   -1.7441    0.0433 H   0  0  0  0  0  0  0  0  0  0  0  0
   10.7342   -0.0656   -0.5358 H   0  0  0  0  0  0  0  0  0  0  0  0
   12.9180    0.1693    0.6151 H   0  0  0  0  0  0  0  0  0  0  0  0
   12.7934   -1.5092    1.1942 H   0  0  0  0  0  0  0  0  0  0  0  0
   12.7293   -2.3134   -1.1506 H   0  0  0  0  0  0  0  0  0  0  0  0
   12.8539   -0.6348   -1.7296 H   0  0  0  0  0  0  0  0  0  0  0  0
   15.0377   -0.3999   -0.5787 H   0  0  0  0  0  0  0  0  0  0  0  0
   14.9131   -2.0785    0.0003 H   0  0  0  0  0  0  0  0  0  0  0  0
   14.8490   -2.8826   -2.3444 H   0  0  0  0  0  0  0  0  0  0  0  0
   14.9736   -1.2041   -2.9235 H   0  0  0  0  0  0  0  0  0  0  0  0
   17.1574   -0.9692   -1.7725 H   0  0  0  0  0  0  0  0  0  0  0  0
   17.0328   -2.6477   -1.1935 H   0  0  0  0  0  0  0  0  0  0  0  0
   16.9687   -3.4518   -3.5382 H   0  0  0  0  0  0  0  0  0  0  0  0
   17.0933   -1.7733   -4.1173 H   0  0  0  0  0  0  0  0  0  0  0  0
   19.2771   -1.5384   -2.9664 H   0  0  0  0  0  0  0  0  0  0  0  0
   19.1525   -3.2169   -2.3873 H   0  0  0  0  0  0  0  0  0  0  0  0
   21.3887   -2.9498   -3.8673 H   0  0  0  0  0  0  0  0  0  0  0  0
   22.3228   -3.6950   -5.8264 H   0  0  0  0  0  0  0  0  0  0  0  0
    2.9298   -1.1156   -5.2355 H   0  0  0  0  0  0  0  0  0  0  0  0
   -1.9262   -0.4823   -5.0143 H   0  0  0  0  0  0  0  0  0  0  0  0
   -2.0792   -2.2226   -5.3551 H   0  0  0  0  0  0  0  0  0  0  0  0
   -2.0143   -1.6476   -3.6718 H   0  0  0  0  0  0  0  0  0  0  0  0
  1  2  1  0  0  0  0
  1 37  1  0  0  0  0
  1 38  1  0  0  0  0
  1 39  1  0  0  0  0
  2  3  1  0  0  0  0
  2 40  1  0  0  0  0
  2 41  1  0  0  0  0
  3  8  2  0  0  0  0
  3  4  1  0  0  0  0
  4  5  2  0  0  0  0
  4 42  1  0  0  0  0
  5  6  1  0  0  0  0
  5 34  1  0  0  0  0
  6  7  2  0  0  0  0
  6 33  1  0  0  0  0
  7  8  1  0  0  0  0
  7 43  1  0  0  0  0
  8  9  1  0  0  0  0
  9 10  1  0  0  0  0
 10 11  1  0  0  0  0
 10 44  1  0  0  0  0
 10 45  1  0  0  0  0
 11 16  2  0  0  0  0
 11 12  1  0  0  0  0
 12 13  2  0  0  0  0
 12 46  1  0  0  0  0
 13 14  1  0  0  0  0
 13 47  1  0  0  0  0
 14 15  2  0  0  0  0
 14 48  1  0  0  0  0
 15 16  1  0  0  0  0
 15 17  1  0  0  0  0
 17 18  2  0  0  0  0
 17 19  1  0  0  0  0
 19 20  1  0  0  0  0
 19 49  1  0  0  0  0
 20 21  1  0  0  0  0
 20 50  1  0  0  0  0
 20 51  1  0  0  0  0
 21 22  1  0  0  0  0
 21 52  1  0  0  0  0
 21 53  1  0  0  0  0
 22 23  1  0  0  0  0
 22 54  1  0  0  0  0
 22 55  1  0  0  0  0
 23 24  1  0  0  0  0
 23 56  1  0  0  0  0
 23 57  1  0  0  0  0
 24 25  1  0  0  0  0
 24 58  1  0  0  0  0
 24 59  1  0  0  0  0
 25 26  1  0  0  0  0
 25 60  1  0  0  0  0
 25 61  1  0  0  0  0
 26 27  1  0  0  0  0
 26 62  1  0  0  0  0
 26 63  1  0  0  0  0
 27 28  1  0  0  0  0
 27 64  1  0  0  0  0
 27 65  1  0  0  0  0
 28 29  1  0  0  0  0
 28 66  1  0  0  0  0
 28 67  1  0  0  0  0
 29 30  2  0  0  0  0
 29 31  1  0  0  0  0
 31 32  1  0  0  0  0
 31 68  1  0  0  0  0
 32 69  1  0  0  0  0
 33 70  1  0  0  0  0
 34 35  2  0  0  0  0
 34 36  1  0  0  0  0
 36 71  1  0  0  0  0
 36 72  1  0  0  0  0
 36 73  1  0  0  0  0
M  END
$$$$
CHEMBL362755
  -OEChem-07121202283D

 50 51  0     1  0  0  0  0  0999 V2000
   -0.0187    1.5258    0.0104 C   0  0  0  0  0  0  0  0  0  0  0  0
    0.0021   -0.0041    0.0020 C   0  0  0  0  0  0  0  0  0  0  0  0
   -1.4117   -0.5257    0.0127 C   0  0  0  0  0  0  0  0  0  0  0  0
   -2.0029   -0.8583    1.1968 C   0  0  0  0  0  0  0  0  0  0  0  0
   -3.3173   -1.3438    1.2132 C   0  0  0  0  0  0  0  0  0  0  0  0
   -4.0223   -1.4856    0.0041 C   0  0  0  0  0  0  0  0  0  0  0  0
   -3.4095   -1.1437   -1.1886 C   0  0  0  0  0  0  0  0  0  0  0  0
   -2.1088   -0.6599   -1.1851 C   0  0  0  0  0  0  0  0  0  0  0  0
   -1.5117   -0.3205   -2.3551 O   0  0  0  0  0  0  0  0  0  0  0  0
   -2.2824   -0.4824   -3.5476 C   0  0  0  0  0  0  0  0  0  0  0  0
   -1.4611   -0.0584   -4.7379 C   0  0  0  0  0  0  0  0  0  0  0  0
   -1.4929    1.2574   -5.1652 C   0  0  0  0  0  0  0  0  0  0  0  0
   -0.7416    1.6550   -6.2566 C   0  0  0  0  0  0  0  0  0  0  0  0
    0.0446    0.7404   -6.9269 C   0  0  0  0  0  0  0  0  0  0  0  0
    0.0812   -0.5881   -6.5011 C   0  0  0  0  0  0  0  0  0  0  0  0
   -0.6749   -0.9815   -5.3955 C   0  0  0  0  0  0  0  0  0  0  0  0
    0.9210   -1.5736   -7.2148 C   0  0  0  0  0  0  0  0  0  0  0  0
    0.9510   -2.7301   -6.8417 O   0  0  0  0  0  0  0  0  0  0  0  0
    1.6535   -1.1897   -8.2790 N   0  0  0  0  0  0  0  0  0  0  0  0
    2.4857   -2.1662   -8.9862 C   0  0  2  0  0  0  0  0  0  0  0  0
    3.8393   -2.2868   -8.2832 C   0  0  0  0  0  0  0  0  0  0  0  0
    2.6965   -1.7110  -10.4073 C   0  0  0  0  0  0  0  0  0  0  0  0
    2.3572   -0.5896  -10.7449 O   0  0  0  0  0  0  0  0  0  0  0  0
    3.2063   -2.4641  -11.2194 O   0  5  0  0  0  0  0  0  0  0  0  0
   -5.2946   -1.9549    0.0073 O   0  0  0  0  0  0  0  0  0  0  0  0
   -3.9538   -1.7024    2.4829 C   0  0  0  0  0  0  0  0  0  0  0  0
   -5.0921   -2.1226    2.4936 O   0  0  0  0  0  0  0  0  0  0  0  0
   -3.1949   -1.5495    3.7759 C   0  0  0  0  0  0  0  0  0  0  0  0
    1.0039    1.9031    0.0027 H   0  0  0  0  0  0  0  0  0  0  0  0
   -0.5459    1.8868   -0.8726 H   0  0  0  0  0  0  0  0  0  0  0  0
   -0.5289    1.8773    0.9072 H   0  0  0  0  0  0  0  0  0  0  0  0
    0.5123   -0.3556   -0.8948 H   0  0  0  0  0  0  0  0  0  0  0  0
    0.5293   -0.3651    0.8851 H   0  0  0  0  0  0  0  0  0  0  0  0
   -1.4571   -0.7475    2.1222 H   0  0  0  0  0  0  0  0  0  0  0  0
   -3.9441   -1.2502   -2.1210 H   0  0  0  0  0  0  0  0  0  0  0  0
   -2.5672   -1.5288   -3.6569 H   0  0  0  0  0  0  0  0  0  0  0  0
   -3.1794    0.1339   -3.4869 H   0  0  0  0  0  0  0  0  0  0  0  0
   -2.1072    1.9771   -4.6444 H   0  0  0  0  0  0  0  0  0  0  0  0
   -0.7709    2.6834   -6.5851 H   0  0  0  0  0  0  0  0  0  0  0  0
    0.6301    1.0519   -7.7793 H   0  0  0  0  0  0  0  0  0  0  0  0
   -0.6475   -2.0071   -5.0583 H   0  0  0  0  0  0  0  0  0  0  0  0
    1.6296   -0.2668   -8.5767 H   0  0  0  0  0  0  0  0  0  0  0  0
    1.9881   -3.1359   -8.9853 H   0  0  0  0  0  0  0  0  0  0  0  0
    3.6868   -2.6160   -7.2554 H   0  0  0  0  0  0  0  0  0  0  0  0
    4.4584   -3.0133   -8.8094 H   0  0  0  0  0  0  0  0  0  0  0  0
    4.3368   -1.3170   -8.2841 H   0  0  0  0  0  0  0  0  0  0  0  0
   -5.9679   -1.2655    0.0889 H   0  0  0  0  0  0  0  0  0  0  0  0
   -2.9110   -0.5057    3.9093 H   0  0  0  0  0  0  0  0  0  0  0  0
   -3.8264   -1.8634    4.6071 H   0  0  0  0  0  0  0  0  0  0  0  0
   -2.2986   -2.1690    3.7465 H   0  0  0  0  0  0  0  0  0  0  0  0
  1  2  1  0  0  0  0
  1 29  1  0  0  0  0
  1 30  1  0  0  0  0
  1 31  1  0  0  0  0
  2  3  1  0  0  0  0
  2 32  1  0  0  0  0
  2 33  1  0  0  0  0
  3  8  2  0  0  0  0
  3  4  1  0  0  0  0
  4  5  2  0  0  0  0
  4 34  1  0  0  0  0
  5  6  1  0  0  0  0
  5 26  1  0  0  0  0
  6  7  2  0  0  0  0
  6 25  1  0  0  0  0
  7  8  1  0  0  0  0
  7 35  1  0  0  0  0
  8  9  1  0  0  0  0
  9 10  1  0  0  0  0
 10 11  1  0  0  0  0
 10 36  1  0  0  0  0
 10 37  1  0  0  0  0
 11 16  2  0  0  0  0
 11 12  1  0  0  0  0
 12 13  2  0  0  0  0
 12 38  1  0  0  0  0
 13 14  1  0  0  0  0
 13 39  1  0  0  0  0
 14 15  2  0  0  0  0
 14 40  1  0  0  0  0
 15 16  1  0  0  0  0
 15 17  1  0  0  0  0
 16 41  1  0  0  0  0
 17 18  2  0  0  0  0
 17 19  1  0  0  0  0
 19 20  1  0  0  0  0
 19 42  1  0  0  0  0
 20 21  1  0  0  0  0
 20 22  1  0  0  0  0
 20 43  1  0  0  0  0
 21 44  1  0  0  0  0
 21 45  1  0  0  0  0
 21 46  1  0  0  0  0
 22 23  2  0  0  0  0
 22 24  1  0  0  0  0
 25 47  1  0  0  0  0
 26 27  2  0  0  0  0
 26 28  1  0  0  0  0
 28 48  1  0  0  0  0
 28 49  1  0  0  0  0
 28 50  1  0  0  0  0
M  CHG  1  24  -1
M  END
$$$$
CHEMBL362755
  -OEChem-07121202283D

 50 51  0     1  0  0  0  0  0999 V2000
   -0.0187    1.5258    0.0104 C   0  0  0  0  0  0  0  0  0  0  0  0
    0.0021   -0.0041    0.0020 C   0  0  0  0  0  0  0  0  0  0  0  0
   -1.4117   -0.5257    0.0127 C   0  0  0  0  0  0  0  0  0  0  0  0
   -2.0029   -0.8583    1.1968 C   0  0  0  0  0  0  0  0  0  0  0  0
   -3.3173   -1.3438    1.2132 C   0  0  0  0  0  0  0  0  0  0  0  0
   -4.0223   -1.4856    0.0041 C   0  0  0  0  0  0  0  0  0  0  0  0
   -3.4095   -1.1437   -1.1886 C   0  0  0  0  0  0  0  0  0  0  0  0
   -2.1088   -0.6599   -1.1851 C   0  0  0  0  0  0  0  0  0  0  0  0
   -1.5117   -0.3205   -2.3551 O   0  0  0  0  0  0  0  0  0  0  0  0
   -2.2824   -0.4824   -3.5476 C   0  0  0  0  0  0  0  0  0  0  0  0
   -1.4611   -0.0584   -4.7379 C   0  0  0  0  0  0  0  0  0  0  0  0
   -1.4929    1.2574   -5.1652 C   0  0  0  0  0  0  0  0  0  0  0  0
   -0.7416    1.6550   -6.2566 C   0  0  0  0  0  0  0  0  0  0  0  0
    0.0446    0.7404   -6.9269 C   0  0  0  0  0  0  0  0  0  0  0  0
    0.0812   -0.5881   -6.5011 C   0  0  0  0  0  0  0  0  0  0  0  0
   -0.6749   -0.9815   -5.3955 C   0  0  0  0  0  0  0  0  0  0  0  0
    0.9210   -1.5736   -7.2148 C   0  0  0  0  0  0  0  0  0  0  0  0
    0.9510   -2.7301   -6.8417 O   0  0  0  0  0  0  0  0  0  0  0  0
    1.6535   -1.1897   -8.2790 N   0  0  0  0  0  0  0  0  0  0  0  0
    2.4857   -2.1662   -8.9862 C   0  0  1  0  0  0  0  0  0  0  0  0
    1.6362   -2.9048  -10.0224 C   0  0  0  0  0  0  0  0  0  0  0  0
    3.6170   -1.4527   -9.6806 C   0  0  0  0  0  0  0  0  0  0  0  0
    3.7187   -0.2409   -9.5929 O   0  0  0  0  0  0  0  0  0  0  0  0
    4.4306   -2.0874  -10.3301 O   0  5  0  0  0  0  0  0  0  0  0  0
   -5.2946   -1.9549    0.0073 O   0  0  0  0  0  0  0  0  0  0  0  0
   -3.9538   -1.7024    2.4829 C   0  0  0  0  0  0  0  0  0  0  0  0
   -5.0921   -2.1226    2.4936 O   0  0  0  0  0  0  0  0  0  0  0  0
   -3.1949   -1.5495    3.7759 C   0  0  0  0  0  0  0  0  0  0  0  0
    1.0039    1.9031    0.0027 H   0  0  0  0  0  0  0  0  0  0  0  0
   -0.5459    1.8868   -0.8726 H   0  0  0  0  0  0  0  0  0  0  0  0
   -0.5289    1.8773    0.9072 H   0  0  0  0  0  0  0  0  0  0  0  0
    0.5123   -0.3556   -0.8948 H   0  0  0  0  0  0  0  0  0  0  0  0
    0.5293   -0.3651    0.8851 H   0  0  0  0  0  0  0  0  0  0  0  0
   -1.4571   -0.7475    2.1222 H   0  0  0  0  0  0  0  0  0  0  0  0
   -3.9441   -1.2502   -2.1210 H   0  0  0  0  0  0  0  0  0  0  0  0
   -2.5672   -1.5288   -3.6569 H   0  0  0  0  0  0  0  0  0  0  0  0
   -3.1794    0.1339   -3.4869 H   0  0  0  0  0  0  0  0  0  0  0  0
   -2.1072    1.9771   -4.6444 H   0  0  0  0  0  0  0  0  0  0  0  0
   -0.7709    2.6834   -6.5851 H   0  0  0  0  0  0  0  0  0  0  0  0
    0.6301    1.0519   -7.7793 H   0  0  0  0  0  0  0  0  0  0  0  0
   -0.6475   -2.0071   -5.0583 H   0  0  0  0  0  0  0  0  0  0  0  0
    1.6296   -0.2668   -8.5767 H   0  0  0  0  0  0  0  0  0  0  0  0
    2.8918   -2.8824   -8.2720 H   0  0  0  0  0  0  0  0  0  0  0  0
    2.2554   -3.6314  -10.5485 H   0  0  0  0  0  0  0  0  0  0  0  0
    0.8179   -3.4209   -9.5202 H   0  0  0  0  0  0  0  0  0  0  0  0
    1.2301   -2.1886  -10.7366 H   0  0  0  0  0  0  0  0  0  0  0  0
   -5.9679   -1.2655    0.0889 H   0  0  0  0  0  0  0  0  0  0  0  0
   -2.9110   -0.5057    3.9093 H   0  0  0  0  0  0  0  0  0  0  0  0
   -3.8264   -1.8634    4.6071 H   0  0  0  0  0  0  0  0  0  0  0  0
   -2.2986   -2.1690    3.7465 H   0  0  0  0  0  0  0  0  0  0  0  0
  1  2  1  0  0  0  0
  1 29  1  0  0  0  0
  1 30  1  0  0  0  0
  1 31  1  0  0  0  0
  2  3  1  0  0  0  0
  2 32  1  0  0  0  0
  2 33  1  0  0  0  0
  3  8  2  0  0  0  0
  3  4  1  0  0  0  0
  4  5  2  0  0  0  0
  4 34  1  0  0  0  0
  5  6  1  0  0  0  0
  5 26  1  0  0  0  0
  6  7  2  0  0  0  0
  6 25  1  0  0  0  0
  7  8  1  0  0  0  0
  7 35  1  0  0  0  0
  8  9  1  0  0  0  0
  9 10  1  0  0  0  0
 10 11  1  0  0  0  0
 10 36  1  0  0  0  0
 10 37  1  0  0  0  0
 11 16  2  0  0  0  0
 11 12  1  0  0  0  0
 12 13  2  0  0  0  0
 12 38  1  0  0  0  0
 13 14  1  0  0  0  0
 13 39  1  0  0  0  0
 14 15  2  0  0  0  0
 14 40  1  0  0  0  0
 15 16  1  0  0  0  0
 15 17  1  0  0  0  0
 16 41  1  0  0  0  0
 17 18  2  0  0  0  0
 17 19  1  0  0  0  0
 19 20  1  0  0  0  0
 19 42  1  0  0  0  0
 20 21  1  0  0  0  0
 20 22  1  0  0  0  0
 20 43  1  0  0  0  0
 21 44  1  0  0  0  0
 21 45  1  0  0  0  0
 21 46  1  0  0  0  0
 22 23  2  0  0  0  0
 22 24  1  0  0  0  0
 25 47  1  0  0  0  0
 26 27  2  0  0  0  0
 26 28  1  0  0  0  0
 28 48  1  0  0  0  0
 28 49  1  0  0  0  0
 28 50  1  0  0  0  0
M  CHG  1  24  -1
M  END
$$$$
CHEMBL266960
  -OEChem-07121202283D

 53 56  0     0  0  0  0  0  0999 V2000
    0.0543    1.3380   -0.0730 C   0  0  0  0  0  0  0  0  0  0  0  0
   -0.0212   -0.0884   -0.0341 O   0  0  0  0  0  0  0  0  0  0  0  0
    0.6002   -0.7113    1.0020 C   0  0  0  0  0  0  0  0  0  0  0  0
    1.2638    0.0354    1.9643 C   0  0  0  0  0  0  0  0  0  0  0  0
    1.8942   -0.5998    3.0168 C   0  0  0  0  0  0  0  0  0  0  0  0
    1.8648   -1.9790    3.1117 C   0  0  0  0  0  0  0  0  0  0  0  0
    1.2048   -2.7263    2.1541 C   0  0  0  0  0  0  0  0  0  0  0  0
    0.5670   -2.0954    1.1021 C   0  0  0  0  0  0  0  0  0  0  0  0
   -0.2680   -3.0335   -0.0964 Cl  0  0  0  0  0  0  0  0  0  0  0  0
    2.5540   -2.6687    4.2608 C   0  0  0  0  0  0  0  0  0  0  0  0
    1.6151   -2.8163    5.3757 N   0  0  0  0  0  0  0  0  0  0  0  0
    2.0258   -3.4270    6.5527 C   0  0  0  0  0  0  0  0  0  0  0  0
    1.1264   -3.5810    7.6350 C   0  0  0  0  0  0  0  0  0  0  0  0
   -0.1962   -3.1372    7.5818 C   0  0  0  0  0  0  0  0  0  0  0  0
   -1.0182   -3.3248    8.6849 C   0  0  0  0  0  0  0  0  0  0  0  0
   -0.5274   -3.9535    9.8426 C   0  0  0  0  0  0  0  0  0  0  0  0
    0.7594   -4.3903    9.9076 C   0  0  0  0  0  0  0  0  0  0  0  0
    1.6096   -4.2141    8.8091 C   0  0  0  0  0  0  0  0  0  0  0  0
    2.9561   -4.6464    8.8139 C   0  0  0  0  0  0  0  0  0  0  0  0
    3.6959   -4.4453    7.7409 N   0  3  0  0  0  0  0  0  0  0  0  0
    3.2590   -3.8783    6.6788 N   0  0  0  0  0  0  0  0  0  0  0  0
    3.4918   -5.2733    9.9327 N   0  0  0  0  0  0  0  0  0  0  0  0
    3.4221   -6.7337   10.0776 C   0  0  0  0  0  0  0  0  0  0  0  0
    4.8336   -7.2718   10.3323 C   0  0  0  0  0  0  0  0  0  0  0  0
    5.4413   -6.5489   11.5366 C   0  0  0  0  0  0  0  0  0  0  0  0
    5.5419   -5.0515   11.2374 C   0  0  0  0  0  0  0  0  0  0  0  0
    4.1438   -4.4888   10.9901 C   0  0  0  0  0  0  0  0  0  0  0  0
    6.7457   -7.0711   11.7969 O   0  0  0  0  0  0  0  0  0  0  0  0
   -2.3767   -2.8737    8.6432 C   0  0  0  0  0  0  0  0  0  0  0  0
   -3.4544   -2.5159    8.6102 N   0  0  0  0  0  0  0  0  0  0  0  0
    1.0986    1.6452   -0.1305 H   0  0  0  0  0  0  0  0  0  0  0  0
   -0.4814    1.7065   -0.9479 H   0  0  0  0  0  0  0  0  0  0  0  0
   -0.3966    1.7505    0.8295 H   0  0  0  0  0  0  0  0  0  0  0  0
    1.2879    1.1126    1.8907 H   0  0  0  0  0  0  0  0  0  0  0  0
    2.4109   -0.0184    3.7661 H   0  0  0  0  0  0  0  0  0  0  0  0
    1.1839   -3.8034    2.2300 H   0  0  0  0  0  0  0  0  0  0  0  0
    2.8962   -3.6530    3.9412 H   0  0  0  0  0  0  0  0  0  0  0  0
    3.4087   -2.0734    4.5820 H   0  0  0  0  0  0  0  0  0  0  0  0
    0.7065   -2.4873    5.2914 H   0  0  0  0  0  0  0  0  0  0  0  0
   -0.5752   -2.6536    6.6937 H   0  0  0  0  0  0  0  0  0  0  0  0
   -1.1805   -4.0914   10.6916 H   0  0  0  0  0  0  0  0  0  0  0  0
    1.1238   -4.8711   10.8033 H   0  0  0  0  0  0  0  0  0  0  0  0
    2.7772   -6.9871   10.9190 H   0  0  0  0  0  0  0  0  0  0  0  0
    3.0230   -7.1730    9.1634 H   0  0  0  0  0  0  0  0  0  0  0  0
    4.7839   -8.3413   10.5370 H   0  0  0  0  0  0  0  0  0  0  0  0
    5.4535   -7.0978    9.4527 H   0  0  0  0  0  0  0  0  0  0  0  0
    4.8077   -6.7029   12.4101 H   0  0  0  0  0  0  0  0  0  0  0  0
    5.9962   -4.5406   12.0863 H   0  0  0  0  0  0  0  0  0  0  0  0
    6.1551   -4.8983   10.3493 H   0  0  0  0  0  0  0  0  0  0  0  0
    4.2207   -3.4473   10.6777 H   0  0  0  0  0  0  0  0  0  0  0  0
    3.5590   -4.5550   11.9075 H   0  0  0  0  0  0  0  0  0  0  0  0
    7.1918   -6.6583   12.5489 H   0  0  0  0  0  0  0  0  0  0  0  0
    4.6180   -4.7459    7.7554 H   0  0  0  0  0  0  0  0  0  0  0  0
  1  2  1  0  0  0  0
  1 31  1  0  0  0  0
  1 32  1  0  0  0  0
  1 33  1  0  0  0  0
  2  3  1  0  0  0  0
  3  8  2  0  0  0  0
  3  4  1  0  0  0  0
  4  5  2  0  0  0  0
  4 34  1  0  0  0  0
  5  6  1  0  0  0  0
  5 35  1  0  0  0  0
  6  7  2  0  0  0  0
  6 10  1  0  0  0  0
  7  8  1  0  0  0  0
  7 36  1  0  0  0  0
  8  9  1  0  0  0  0
 10 11  1  0  0  0  0
 10 37  1  0  0  0  0
 10 38  1  0  0  0  0
 11 12  1  0  0  0  0
 11 39  1  0  0  0  0
 12 21  2  0  0  0  0
 12 13  1  0  0  0  0
 13 18  2  0  0  0  0
 13 14  1  0  0  0  0
 14 15  2  0  0  0  0
 14 40  1  0  0  0  0
 15 16  1  0  0  0  0
 15 29  1  0  0  0  0
 16 17  2  0  0  0  0
 16 41  1  0  0  0  0
 17 18  1  0  0  0  0
 17 42  1  0  0  0  0
 18 19  1  0  0  0  0
 19 20  2  0  0  0  0
 19 22  1  0  0  0  0
 20 21  1  0  0  0  0
 20 53  1  0  0  0  0
 22 27  1  0  0  0  0
 22 23  1  0  0  0  0
 23 24  1  0  0  0  0
 23 43  1  0  0  0  0
 23 44  1  0  0  0  0
 24 25  1  0  0  0  0
 24 45  1  0  0  0  0
 24 46  1  0  0  0  0
 25 26  1  0  0  0  0
 25 28  1  0  0  0  0
 25 47  1  0  0  0  0
 26 27  1  0  0  0  0
 26 48  1  0  0  0  0
 26 49  1  0  0  0  0
 27 50  1  0  0  0  0
 27 51  1  0  0  0  0
 28 52  1  0  0  0  0
 29 30  3  0  0  0  0
M  CHG  1  20   1
M  END
$$$$
CHEMBL266960
  -OEChem-07121202283D

 52 55  0     0  0  0  0  0  0999 V2000
    0.0543    1.3381   -0.0730 C   0  0  0  0  0  0  0  0  0  0  0  0
   -0.0212   -0.0884   -0.0341 O   0  0  0  0  0  0  0  0  0  0  0  0
    0.6002   -0.7112    1.0020 C   0  0  0  0  0  0  0  0  0  0  0  0
    1.2637    0.0355    1.9644 C   0  0  0  0  0  0  0  0  0  0  0  0
    1.8942   -0.5997    3.0169 C   0  0  0  0  0  0  0  0  0  0  0  0
    1.8649   -1.9789    3.1117 C   0  0  0  0  0  0  0  0  0  0  0  0
    1.2049   -2.7262    2.1541 C   0  0  0  0  0  0  0  0  0  0  0  0
    0.5670   -2.0953    1.1021 C   0  0  0  0  0  0  0  0  0  0  0  0
   -0.2678   -3.0335   -0.0965 Cl  0  0  0  0  0  0  0  0  0  0  0  0
    2.5540   -2.6686    4.2608 C   0  0  0  0  0  0  0  0  0  0  0  0
    1.6151   -2.8163    5.3757 N   0  0  0  0  0  0  0  0  0  0  0  0
    2.0258   -3.4270    6.5527 C   0  0  0  0  0  0  0  0  0  0  0  0
    1.1264   -3.5810    7.6349 C   0  0  0  0  0  0  0  0  0  0  0  0
   -0.1962   -3.1373    7.5818 C   0  0  0  0  0  0  0  0  0  0  0  0
   -1.0183   -3.3249    8.6848 C   0  0  0  0  0  0  0  0  0  0  0  0
   -0.5275   -3.9537    9.8425 C   0  0  0  0  0  0  0  0  0  0  0  0
    0.7593   -4.3904    9.9075 C   0  0  0  0  0  0  0  0  0  0  0  0
    1.6096   -4.2142    8.8090 C   0  0  0  0  0  0  0  0  0  0  0  0
    2.9561   -4.6464    8.8139 C   0  0  0  0  0  0  0  0  0  0  0  0
    3.6959   -4.4452    7.7409 N   0  0  0  0  0  0  0  0  0  0  0  0
    3.2591   -3.8782    6.6789 N   0  0  0  0  0  0  0  0  0  0  0  0
    3.4918   -5.2733    9.9327 N   0  0  0  0  0  0  0  0  0  0  0  0
    3.4221   -6.7337   10.0776 C   0  0  0  0  0  0  0  0  0  0  0  0
    4.8336   -7.2718   10.3323 C   0  0  0  0  0  0  0  0  0  0  0  0
    5.4413   -6.5489   11.5366 C   0  0  0  0  0  0  0  0  0  0  0  0
    5.5419   -5.0515   11.2374 C   0  0  0  0  0  0  0  0  0  0  0  0
    4.1438   -4.4888   10.9901 C   0  0  0  0  0  0  0  0  0  0  0  0
    6.7457   -7.0711   11.7969 O   0  0  0  0  0  0  0  0  0  0  0  0
   -2.3768   -2.8740    8.6431 C   0  0  0  0  0  0  0  0  0  0  0  0
   -3.4545   -2.5162    8.6101 N   0  0  0  0  0  0  0  0  0  0  0  0
    1.0985    1.6453   -0.1304 H   0  0  0  0  0  0  0  0  0  0  0  0
   -0.4814    1.7066   -0.9478 H   0  0  0  0  0  0  0  0  0  0  0  0
   -0.3967    1.7505    0.8296 H   0  0  0  0  0  0  0  0  0  0  0  0
    1.2878    1.1127    1.8908 H   0  0  0  0  0  0  0  0  0  0  0  0
    2.4108   -0.0183    3.7662 H   0  0  0  0  0  0  0  0  0  0  0  0
    1.1840   -3.8033    2.2300 H   0  0  0  0  0  0  0  0  0  0  0  0
    2.8963   -3.6528    3.9412 H   0  0  0  0  0  0  0  0  0  0  0  0
    3.4087   -2.0732    4.5820 H   0  0  0  0  0  0  0  0  0  0  0  0
    0.7065   -2.4874    5.2914 H   0  0  0  0  0  0  0  0  0  0  0  0
   -0.5752   -2.6537    6.6936 H   0  0  0  0  0  0  0  0  0  0  0  0
   -1.1805   -4.0917   10.6915 H   0  0  0  0  0  0  0  0  0  0  0  0
    1.1238   -4.8712   10.8033 H   0  0  0  0  0  0  0  0  0  0  0  0
    2.7772   -6.9871   10.9190 H   0  0  0  0  0  0  0  0  0  0  0  0
    3.0230   -7.1730    9.1634 H   0  0  0  0  0  0  0  0  0  0  0  0
    4.7839   -8.3413   10.5370 H   0  0  0  0  0  0  0  0  0  0  0  0
    5.4535   -7.0978    9.4527 H   0  0  0  0  0  0  0  0  0  0  0  0
    4.8077   -6.7029   12.4101 H   0  0  0  0  0  0  0  0  0  0  0  0
    5.9962   -4.5406   12.0863 H   0  0  0  0  0  0  0  0  0  0  0  0
    6.1551   -4.8983   10.3493 H   0  0  0  0  0  0  0  0  0  0  0  0
    4.2207   -3.4473   10.6777 H   0  0  0  0  0  0  0  0  0  0  0  0
    3.5590   -4.5550   11.9075 H   0  0  0  0  0  0  0  0  0  0  0  0
    7.1918   -6.6583   12.5489 H   0  0  0  0  0  0  0  0  0  0  0  0
  1  2  1  0  0  0  0
  1 31  1  0  0  0  0
  1 32  1  0  0  0  0
  1 33  1  0  0  0  0
  2  3  1  0  0  0  0
  3  8  2  0  0  0  0
  3  4  1  0  0  0  0
  4  5  2  0  0  0  0
  4 34  1  0  0  0  0
  5  6  1  0  0  0  0
  5 35  1  0  0  0  0
  6  7  2  0  0  0  0
  6 10  1  0  0  0  0
  7  8  1  0  0  0  0
  7 36  1  0  0  0  0
  8  9  1  0  0  0  0
 10 11  1  0  0  0  0
 10 37  1  0  0  0  0
 10 38  1  0  0  0  0
 11 12  1  0  0  0  0
 11 39  1  0  0  0  0
 12 21  2  0  0  0  0
 12 13  1  0  0  0  0
 13 18  2  0  0  0  0
 13 14  1  0  0  0  0
 14 15  2  0  0  0  0
 14 40  1  0  0  0  0
 15 16  1  0  0  0  0
 15 29  1  0  0  0  0
 16 17  2  0  0  0  0
 16 41  1  0  0  0  0
 17 18  1  0  0  0  0
 17 42  1  0  0  0  0
 18 19  1  0  0  0  0
 19 20  2  0  0  0  0
 19 22  1  0  0  0  0
 20 21  1  0  0  0  0
 22 27  1  0  0  0  0
 22 23  1  0  0  0  0
 23 24  1  0  0  0  0
 23 43  1  0  0  0  0
 23 44  1  0  0  0  0
 24 25  1  0  0  0  0
 24 45  1  0  0  0  0
 24 46  1  0  0  0  0
 25 26  1  0  0  0  0
 25 28  1  0  0  0  0
 25 47  1  0  0  0  0
 26 27  1  0  0  0  0
 26 48  1  0  0  0  0
 26 49  1  0  0  0  0
 27 50  1  0  0  0  0
 27 51  1  0  0  0  0
 28 52  1  0  0  0  0
 29 30  3  0  0  0  0
M  END
$$$$
CHEMBL436144
  -OEChem-07121202283D

 63 69  0     1  0  0  0  0  0999 V2000
   -0.0187    1.5258    0.0104 C   0  0  0  0  0  0  0  0  0  0  0  0
    0.0021   -0.0041    0.0020 C   0  0  0  0  0  0  0  0  0  0  0  0
    0.7106   -0.4894    1.1889 N   0  0  0  0  0  0  0  0  0  0  0  0
    2.0395   -0.6857    1.1296 C   0  0  0  0  0  0  0  0  0  0  0  0
    2.6439   -0.4617    0.0961 O   0  0  0  0  0  0  0  0  0  0  0  0
    2.7323   -1.1520    2.2666 C   0  0  0  0  0  0  0  0  0  0  0  0
    2.0299   -1.4014    3.4363 C   0  0  0  0  0  0  0  0  0  0  0  0
    2.9123   -1.8269    4.3455 N   0  0  0  0  0  0  0  0  0  0  0  0
    4.1102   -1.8584    3.8198 C   0  0  0  0  0  0  0  0  0  0  0  0
    4.0540   -1.4509    2.5371 N   0  0  0  0  0  0  0  0  0  0  0  0
    5.1800   -1.3454    1.6058 C   0  0  0  0  0  0  0  0  0  0  0  0
    5.7842    0.0319    1.7021 C   0  0  0  0  0  0  0  0  0  0  0  0
    5.3127    1.0500    0.8943 C   0  0  0  0  0  0  0  0  0  0  0  0
    5.8634    2.3150    0.9793 C   0  0  0  0  0  0  0  0  0  0  0  0
    6.8904    2.5655    1.8749 C   0  0  0  0  0  0  0  0  0  0  0  0
    7.3654    1.5399    2.6886 C   0  0  0  0  0  0  0  0  0  0  0  0
    6.8048    0.2759    2.6020 C   0  0  0  0  0  0  0  0  0  0  0  0
    8.3665    2.0342    3.4739 O   0  0  0  0  0  0  0  0  0  0  0  0
    8.7756    3.2639    2.8465 C   0  0  0  0  0  0  0  0  0  0  0  0
    7.5939    3.7023    2.1504 O   0  0  0  0  0  0  0  0  0  0  0  0
    5.3629   -2.2854    4.5404 C   0  0  0  0  0  0  0  0  0  0  0  0
    5.5631   -3.7686    4.3641 C   0  0  0  0  0  0  0  0  0  0  0  0
    5.0104   -4.6532    5.2712 C   0  0  0  0  0  0  0  0  0  0  0  0
    5.1940   -6.0138    5.1095 C   0  0  0  0  0  0  0  0  0  0  0  0
    5.9298   -6.4897    4.0404 C   0  0  0  0  0  0  0  0  0  0  0  0
    6.4817   -5.6051    3.1328 C   0  0  0  0  0  0  0  0  0  0  0  0
    6.2945   -4.2447    3.2921 C   0  0  0  0  0  0  0  0  0  0  0  0
    0.6592   -1.1889    3.4661 N   0  0  0  0  0  0  0  0  0  0  0  0
   -0.0010   -0.7323    2.3543 C   0  0  0  0  0  0  0  0  0  0  0  0
   -1.2830   -0.5829    2.5451 N   0  3  0  0  0  0  0  0  0  0  0  0
   -1.6508   -0.9423    3.9172 C   0  0  1  0  0  0  0  0  0  0  0  0
   -2.3859   -1.7466    3.9447 H   0  0  0  0  0  0  0  0  0  0  0  0
   -0.3105   -1.3716    4.5586 C   0  0  2  0  0  0  0  0  0  0  0  0
   -0.3269   -2.3962    4.9301 H   0  0  0  0  0  0  0  0  0  0  0  0
   -0.0239   -0.3419    5.6695 C   0  0  0  0  0  0  0  0  0  0  0  0
   -0.8312    0.9108    5.2488 C   0  0  0  0  0  0  0  0  0  0  0  0
   -2.1449    0.3145    4.6618 C   0  0  0  0  0  0  0  0  0  0  0  0
    1.0039    1.9031    0.0027 H   0  0  0  0  0  0  0  0  0  0  0  0
   -0.5459    1.8868   -0.8726 H   0  0  0  0  0  0  0  0  0  0  0  0
   -0.5289    1.8773    0.9072 H   0  0  0  0  0  0  0  0  0  0  0  0
   -1.0205   -0.3814    0.0098 H   0  0  0  0  0  0  0  0  0  0  0  0
    0.5123   -0.3556   -0.8948 H   0  0  0  0  0  0  0  0  0  0  0  0
    5.9331   -2.0911    1.8603 H   0  0  0  0  0  0  0  0  0  0  0  0
    4.8276   -1.5172    0.5888 H   0  0  0  0  0  0  0  0  0  0  0  0
    4.5127    0.8564    0.1951 H   0  0  0  0  0  0  0  0  0  0  0  0
    5.4931    3.1085    0.3471 H   0  0  0  0  0  0  0  0  0  0  0  0
    7.1681   -0.5202    3.2350 H   0  0  0  0  0  0  0  0  0  0  0  0
    9.0720    3.9967    3.5971 H   0  0  0  0  0  0  0  0  0  0  0  0
    9.5891    3.0833    2.1439 H   0  0  0  0  0  0  0  0  0  0  0  0
    6.2192   -1.7517    4.1279 H   0  0  0  0  0  0  0  0  0  0  0  0
    5.2681   -2.0552    5.6016 H   0  0  0  0  0  0  0  0  0  0  0  0
    4.4355   -4.2814    6.1065 H   0  0  0  0  0  0  0  0  0  0  0  0
    4.7628   -6.7049    5.8186 H   0  0  0  0  0  0  0  0  0  0  0  0
    6.0738   -7.5526    3.9145 H   0  0  0  0  0  0  0  0  0  0  0  0
    7.0569   -5.9769    2.2977 H   0  0  0  0  0  0  0  0  0  0  0  0
    6.7226   -3.5538    2.5809 H   0  0  0  0  0  0  0  0  0  0  0  0
   -0.3724   -0.7139    6.6329 H   0  0  0  0  0  0  0  0  0  0  0  0
    1.0409   -0.1127    5.7111 H   0  0  0  0  0  0  0  0  0  0  0  0
   -1.0523    1.5362    6.1137 H   0  0  0  0  0  0  0  0  0  0  0  0
   -0.2956    1.4778    4.4874 H   0  0  0  0  0  0  0  0  0  0  0  0
   -2.6267    1.0038    3.9683 H   0  0  0  0  0  0  0  0  0  0  0  0
   -2.8297    0.0381    5.4635 H   0  0  0  0  0  0  0  0  0  0  0  0
   -1.9080   -0.2753    1.8701 H   0  0  0  0  0  0  0  0  0  0  0  0
  1  2  1  0  0  0  0
  1 38  1  0  0  0  0
  1 39  1  0  0  0  0
  1 40  1  0  0  0  0
  2  3  1  0  0  0  0
  2 41  1  0  0  0  0
  2 42  1  0  0  0  0
  3 29  1  0  0  0  0
  3  4  1  0  0  0  0
  4  5  2  0  0  0  0
  4  6  1  0  0  0  0
  6 10  1  0  0  0  0
  6  7  2  0  0  0  0
  7  8  1  0  0  0  0
  7 28  1  0  0  0  0
  8  9  2  0  0  0  0
  9 10  1  0  0  0  0
  9 21  1  0  0  0  0
 10 11  1  0  0  0  0
 11 12  1  0  0  0  0
 11 43  1  0  0  0  0
 11 44  1  0  0  0  0
 12 17  2  0  0  0  0
 12 13  1  0  0  0  0
 13 14  2  0  0  0  0
 13 45  1  0  0  0  0
 14 15  1  0  0  0  0
 14 46  1  0  0  0  0
 15 20  1  0  0  0  0
 15 16  2  0  0  0  0
 16 17  1  0  0  0  0
 16 18  1  0  0  0  0
 17 47  1  0  0  0  0
 18 19  1  0  0  0  0
 19 20  1  0  0  0  0
 19 48  1  0  0  0  0
 19 49  1  0  0  0  0
 21 22  1  0  0  0  0
 21 50  1  0  0  0  0
 21 51  1  0  0  0  0
 22 27  2  0  0  0  0
 22 23  1  0  0  0  0
 23 24  2  0  0  0  0
 23 52  1  0  0  0  0
 24 25  1  0  0  0  0
 24 53  1  0  0  0  0
 25 26  2  0  0  0  0
 25 54  1  0  0  0  0
 26 27  1  0  0  0  0
 26 55  1  0  0  0  0
 27 56  1  0  0  0  0
 28 33  1  0  0  0  0
 28 29  1  0  0  0  0
 29 30  2  0  0  0  0
 30 31  1  0  0  0  0
 30 63  1  0  0  0  0
 31 32  1  0  0  0  0
 31 37  1  0  0  0  0
 31 33  1  0  0  0  0
 33 34  1  0  0  0  0
 33 35  1  0  0  0  0
 35 36  1  0  0  0  0
 35 57  1  0  0  0  0
 35 58  1  0  0  0  0
 36 37  1  0  0  0  0
 36 59  1  0  0  0  0
 36 60  1  0  0  0  0
 37 61  1  0  0  0  0
 37 62  1  0  0  0  0
M  CHG  1  30   1
M  END
$$$$
CHEMBL371793
  -OEChem-07121202283D

 54 59  0     0  0  0  0  0  0999 V2000
   -0.0184    1.5028    0.0103 C   0  0  0  0  0  0  0  0  0  0  0  0
    0.0021   -0.0041    0.0020 C   0  0  0  0  0  0  0  0  0  0  0  0
   -1.2117   -0.7176    0.0039 C   0  0  0  0  0  0  0  0  0  0  0  0
   -2.5151   -0.0544    0.0137 C   0  0  0  0  0  0  0  0  0  0  0  0
   -2.9320    1.2556    0.0227 C   0  0  0  0  0  0  0  0  0  0  0  0
   -4.3328    1.2528    0.0289 C   0  0  0  0  0  0  0  0  0  0  0  0
   -4.7525    0.0005    0.0238 N   0  0  0  0  0  0  0  0  0  0  0  0
   -3.6405   -0.8489    0.0143 N   0  0  0  0  0  0  0  0  0  0  0  0
   -3.5060   -2.2156    0.0055 C   0  0  0  0  0  0  0  0  0  0  0  0
   -2.3398   -2.8102   -0.0031 N   0  0  0  0  0  0  0  0  0  0  0  0
   -1.1891   -2.1255   -0.0043 C   0  0  0  0  0  0  0  0  0  0  0  0
    0.1149   -2.7937   -0.0141 C   0  0  0  0  0  0  0  0  0  0  0  0
    0.1937   -4.0102   -0.0219 O   0  0  0  0  0  0  0  0  0  0  0  0
    1.2278   -2.0277   -0.0148 N   0  0  0  0  0  0  0  0  0  0  0  0
    1.1428   -0.6337   -0.0123 N   0  0  0  0  0  0  0  0  0  0  0  0
    2.5446   -2.6696   -0.0241 C   0  0  0  0  0  0  0  0  0  0  0  0
    2.9900   -2.8819   -1.4480 C   0  0  0  0  0  0  0  0  0  0  0  0
    2.6648   -4.0530   -2.1066 C   0  0  0  0  0  0  0  0  0  0  0  0
    3.0733   -4.2478   -3.4127 C   0  0  0  0  0  0  0  0  0  0  0  0
    3.8066   -3.2713   -4.0605 C   0  0  0  0  0  0  0  0  0  0  0  0
    4.1309   -2.0998   -3.4023 C   0  0  0  0  0  0  0  0  0  0  0  0
    3.7188   -1.9032   -2.0975 C   0  0  0  0  0  0  0  0  0  0  0  0
   -4.7272   -3.0487    0.0063 C   0  0  0  0  0  0  0  0  0  0  0  0
   -4.6163   -4.4395    0.0033 C   0  0  0  0  0  0  0  0  0  0  0  0
   -5.7692   -5.2057    0.0046 C   0  0  0  0  0  0  0  0  0  0  0  0
   -6.9958   -4.5569    0.0088 C   0  0  0  0  0  0  0  0  0  0  0  0
   -7.0325   -3.1734    0.0116 C   0  0  0  0  0  0  0  0  0  0  0  0
   -5.9215   -2.4674    0.0154 N   0  0  0  0  0  0  0  0  0  0  0  0
   -5.2009    2.4566    0.0393 C   0  0  0  0  0  0  0  0  0  0  0  0
   -4.6323    3.7286    0.0380 C   0  0  0  0  0  0  0  0  0  0  0  0
   -5.4443    4.8446    0.0478 C   0  0  0  0  0  0  0  0  0  0  0  0
   -6.8201    4.7020    0.0593 C   0  0  0  0  0  0  0  0  0  0  0  0
   -7.3898    3.4416    0.0606 C   0  0  0  0  0  0  0  0  0  0  0  0
   -6.5873    2.3188    0.0446 C   0  0  0  0  0  0  0  0  0  0  0  0
    1.0042    1.8801    0.0026 H   0  0  0  0  0  0  0  0  0  0  0  0
   -0.5455    1.8639   -0.8728 H   0  0  0  0  0  0  0  0  0  0  0  0
   -0.5286    1.8543    0.9071 H   0  0  0  0  0  0  0  0  0  0  0  0
   -2.2955    2.1281    0.0247 H   0  0  0  0  0  0  0  0  0  0  0  0
    3.2634   -2.0316    0.4901 H   0  0  0  0  0  0  0  0  0  0  0  0
    2.4835   -3.6316    0.4848 H   0  0  0  0  0  0  0  0  0  0  0  0
    2.0919   -4.8160   -1.6005 H   0  0  0  0  0  0  0  0  0  0  0  0
    2.8199   -5.1631   -3.9270 H   0  0  0  0  0  0  0  0  0  0  0  0
    4.1263   -3.4238   -5.0808 H   0  0  0  0  0  0  0  0  0  0  0  0
    4.7041   -1.3370   -3.9083 H   0  0  0  0  0  0  0  0  0  0  0  0
    3.9690   -0.9864   -1.5845 H   0  0  0  0  0  0  0  0  0  0  0  0
   -3.6449   -4.9115   -0.0003 H   0  0  0  0  0  0  0  0  0  0  0  0
   -5.7151   -6.2843    0.0020 H   0  0  0  0  0  0  0  0  0  0  0  0
   -7.9134   -5.1264    0.0096 H   0  0  0  0  0  0  0  0  0  0  0  0
   -7.9859   -2.6661    0.0149 H   0  0  0  0  0  0  0  0  0  0  0  0
   -3.5582    3.8410    0.0297 H   0  0  0  0  0  0  0  0  0  0  0  0
   -5.0046    5.8311    0.0468 H   0  0  0  0  0  0  0  0  0  0  0  0
   -7.4517    5.5780    0.0676 H   0  0  0  0  0  0  0  0  0  0  0  0
   -8.4646    3.3359    0.0700 H   0  0  0  0  0  0  0  0  0  0  0  0
   -7.0332    1.3351    0.0408 H   0  0  0  0  0  0  0  0  0  0  0  0
  1  2  1  0  0  0  0
  1 35  1  0  0  0  0
  1 36  1  0  0  0  0
  1 37  1  0  0  0  0
  2 15  2  0  0  0  0
  2  3  1  0  0  0  0
  3 11  2  0  0  0  0
  3  4  1  0  0  0  0
  4  8  1  0  0  0  0
  4  5  2  0  0  0  0
  5  6  1  0  0  0  0
  5 38  1  0  0  0  0
  6  7  2  0  0  0  0
  6 29  1  0  0  0  0
  7  8  1  0  0  0  0
  8  9  1  0  0  0  0
  9 10  2  0  0  0  0
  9 23  1  0  0  0  0
 10 11  1  0  0  0  0
 11 12  1  0  0  0  0
 12 13  2  0  0  0  0
 12 14  1  0  0  0  0
 14 15  1  0  0  0  0
 14 16  1  0  0  0  0
 16 17  1  0  0  0  0
 16 39  1  0  0  0  0
 16 40  1  0  0  0  0
 17 22  2  0  0  0  0
 17 18  1  0  0  0  0
 18 19  2  0  0  0  0
 18 41  1  0  0  0  0
 19 20  1  0  0  0  0
 19 42  1  0  0  0  0
 20 21  2  0  0  0  0
 20 43  1  0  0  0  0
 21 22  1  0  0  0  0
 21 44  1  0  0  0  0
 22 45  1  0  0  0  0
 23 28  2  0  0  0  0
 23 24  1  0  0  0  0
 24 25  2  0  0  0  0
 24 46  1  0  0  0  0
 25 26  1  0  0  0  0
 25 47  1  0  0  0  0
 26 27  2  0  0  0  0
 26 48  1  0  0  0  0
 27 28  1  0  0  0  0
 27 49  1  0  0  0  0
 29 34  2  0  0  0  0
 29 30  1  0  0  0  0
 30 31  2  0  0  0  0
 30 50  1  0  0  0  0
 31 32  1  0  0  0  0
 31 51  1  0  0  0  0
 32 33  2  0  0  0  0
 32 52  1  0  0  0  0
 33 34  1  0  0  0  0
 33 53  1  0  0  0  0
 34 54  1  0  0  0  0
M  END
$$$$
CHEMBL140185
  -OEChem-07121202283D

 49 52  0     1  0  0  0  0  0999 V2000
   -0.0187    1.5258    0.0104 C   0  0  0  0  0  0  0  0  0  0  0  0
    0.0021   -0.0041    0.0020 C   0  0  0  0  0  0  0  0  0  0  0  0
    0.7421   -0.5109    1.2415 C   0  0  0  0  0  0  0  0  0  0  0  0
   -1.4333   -0.5336    0.0129 C   0  0  2  0  0  0  0  0  0  0  0  0
   -1.9630   -0.1812    0.8979 H   0  0  0  0  0  0  0  0  0  0  0  0
   -1.4416   -2.0720   -0.0443 C   0  0  0  0  0  0  0  0  0  0  0  0
   -2.1573   -2.3607   -1.3002 N   0  0  0  0  0  0  0  0  0  0  0  0
   -2.4740   -3.5874   -1.8865 C   0  0  0  0  0  0  0  0  0  0  0  0
   -3.1804   -3.5997   -3.1184 C   0  0  0  0  0  0  0  0  0  0  0  0
   -3.3639   -4.9157   -3.4750 C   0  0  0  0  0  0  0  0  0  0  0  0
   -2.8028   -5.6724   -2.5178 N   0  0  0  0  0  0  0  0  0  0  0  0
   -2.2566   -4.8294   -1.5419 N   0  0  0  0  0  0  0  0  0  0  0  0
   -2.7686   -7.1369   -2.4974 C   0  0  0  0  0  0  0  0  0  0  0  0
   -4.0658   -5.4159   -4.7112 C   0  0  0  0  0  0  0  0  0  0  0  0
   -5.5317   -5.6025   -4.4157 C   0  0  0  0  0  0  0  0  0  0  0  0
   -5.9916   -6.8155   -3.9381 C   0  0  0  0  0  0  0  0  0  0  0  0
   -7.3362   -6.9867   -3.6671 C   0  0  0  0  0  0  0  0  0  0  0  0
   -8.2210   -5.9448   -3.8732 C   0  0  0  0  0  0  0  0  0  0  0  0
   -7.7610   -4.7315   -4.3499 C   0  0  0  0  0  0  0  0  0  0  0  0
   -6.4157   -4.5590   -4.6169 C   0  0  0  0  0  0  0  0  0  0  0  0
   -3.5474   -2.3118   -3.7234 C   0  0  0  0  0  0  0  0  0  0  0  0
   -4.1523   -2.2764   -4.7780 O   0  0  0  0  0  0  0  0  0  0  0  0
   -3.2051   -1.1733   -3.0958 N   0  0  0  0  0  0  0  0  0  0  0  0
   -2.5152   -1.1776   -1.8915 C   0  0  0  0  0  0  0  0  0  0  0  0
   -2.1400   -0.1275   -1.2045 N   0  3  0  0  0  0  0  0  0  0  0  0
   -3.5718    0.1097   -3.7004 C   0  0  0  0  0  0  0  0  0  0  0  0
    1.0039    1.9031    0.0027 H   0  0  0  0  0  0  0  0  0  0  0  0
   -0.5459    1.8868   -0.8726 H   0  0  0  0  0  0  0  0  0  0  0  0
   -0.5289    1.8773    0.9072 H   0  0  0  0  0  0  0  0  0  0  0  0
    0.5123   -0.3556   -0.8948 H   0  0  0  0  0  0  0  0  0  0  0  0
    1.7647   -0.1336    1.2338 H   0  0  0  0  0  0  0  0  0  0  0  0
    0.2319   -0.1594    2.1383 H   0  0  0  0  0  0  0  0  0  0  0  0
    0.7568   -1.6008    1.2356 H   0  0  0  0  0  0  0  0  0  0  0  0
   -0.4240   -2.4608   -0.0835 H   0  0  0  0  0  0  0  0  0  0  0  0
   -1.9797   -2.4856    0.8087 H   0  0  0  0  0  0  0  0  0  0  0  0
   -1.8689   -7.4864   -3.0038 H   0  0  0  0  0  0  0  0  0  0  0  0
   -2.7630   -7.4858   -1.4647 H   0  0  0  0  0  0  0  0  0  0  0  0
   -3.6484   -7.5280   -3.0083 H   0  0  0  0  0  0  0  0  0  0  0  0
   -3.9468   -4.6898   -5.5154 H   0  0  0  0  0  0  0  0  0  0  0  0
   -3.6322   -6.3687   -5.0148 H   0  0  0  0  0  0  0  0  0  0  0  0
   -5.3003   -7.6296   -3.7771 H   0  0  0  0  0  0  0  0  0  0  0  0
   -7.6956   -7.9346   -3.2946 H   0  0  0  0  0  0  0  0  0  0  0  0
   -9.2716   -6.0788   -3.6621 H   0  0  0  0  0  0  0  0  0  0  0  0
   -8.4523   -3.9176   -4.5113 H   0  0  0  0  0  0  0  0  0  0  0  0
   -6.0557   -3.6099   -4.9858 H   0  0  0  0  0  0  0  0  0  0  0  0
   -4.1048   -0.0679   -4.6345 H   0  0  0  0  0  0  0  0  0  0  0  0
   -4.2137    0.6639   -3.0156 H   0  0  0  0  0  0  0  0  0  0  0  0
   -2.6698    0.6879   -3.9010 H   0  0  0  0  0  0  0  0  0  0  0  0
   -2.3055    0.7922   -1.4648 H   0  0  0  0  0  0  0  0  0  0  0  0
  1  2  1  0  0  0  0
  1 27  1  0  0  0  0
  1 28  1  0  0  0  0
  1 29  1  0  0  0  0
  2  3  1  0  0  0  0
  2  4  1  0  0  0  0
  2 30  1  0  0  0  0
  3 31  1  0  0  0  0
  3 32  1  0  0  0  0
  3 33  1  0  0  0  0
  4  5  1  0  0  0  0
  4 25  1  0  0  0  0
  4  6  1  0  0  0  0
  6  7  1  0  0  0  0
  6 34  1  0  0  0  0
  6 35  1  0  0  0  0
  7 24  1  0  0  0  0
  7  8  1  0  0  0  0
  8 12  2  0  0  0  0
  8  9  1  0  0  0  0
  9 10  2  0  0  0  0
  9 21  1  0  0  0  0
 10 11  1  0  0  0  0
 10 14  1  0  0  0  0
 11 12  1  0  0  0  0
 11 13  1  0  0  0  0
 13 36  1  0  0  0  0
 13 37  1  0  0  0  0
 13 38  1  0  0  0  0
 14 15  1  0  0  0  0
 14 39  1  0  0  0  0
 14 40  1  0  0  0  0
 15 20  2  0  0  0  0
 15 16  1  0  0  0  0
 16 17  2  0  0  0  0
 16 41  1  0  0  0  0
 17 18  1  0  0  0  0
 17 42  1  0  0  0  0
 18 19  2  0  0  0  0
 18 43  1  0  0  0  0
 19 20  1  0  0  0  0
 19 44  1  0  0  0  0
 20 45  1  0  0  0  0
 21 22  2  0  0  0  0
 21 23  1  0  0  0  0
 23 24  1  0  0  0  0
 23 26  1  0  0  0  0
 24 25  2  0  0  0  0
 25 49  1  0  0  0  0
 26 46  1  0  0  0  0
 26 47  1  0  0  0  0
 26 48  1  0  0  0  0
M  CHG  1  25   1
M  END
$$$$
CHEMBL33121
  -OEChem-07121202283D

 72 79  0     1  0  0  0  0  0999 V2000
   -0.2374    1.1659    0.2459 C   0  0  0  0  0  0  0  0  0  0  0  0
    0.8882    1.9729    0.2738 C   0  0  0  0  0  0  0  0  0  0  0  0
    2.1706    1.4540    0.2285 C   0  0  0  0  0  0  0  0  0  0  0  0
    2.2880    0.0677    0.1521 C   0  0  0  0  0  0  0  0  0  0  0  0
    1.1318   -0.7537    0.1227 C   0  0  0  0  0  0  0  0  0  0  0  0
   -0.1522   -0.2024    0.1707 C   0  0  0  0  0  0  0  0  0  0  0  0
    1.6121   -2.1181    0.0402 C   0  0  0  0  0  0  0  0  0  0  0  0
    2.9614   -2.0616    0.0242 C   0  0  0  0  0  0  0  0  0  0  0  0
    3.3740   -0.7575    0.0940 N   0  0  0  0  0  0  0  0  0  0  0  0
    4.2987   -0.4643    0.1011 H   0  0  0  0  0  0  0  0  0  0  0  0
    3.8472   -3.2835   -0.0649 C   0  0  2  0  0  0  0  0  0  0  0  0
    4.3051   -3.3376   -1.0526 H   0  0  0  0  0  0  0  0  0  0  0  0
    2.9920   -4.4687    0.1577 N   0  0  0  0  0  0  0  0  0  0  0  0
    1.7051   -4.5223   -0.5346 C   0  0  2  0  0  0  0  0  0  0  0  0
    1.8731   -4.3771   -1.6017 H   0  0  0  0  0  0  0  0  0  0  0  0
    0.8064   -3.3907   -0.0162 C   0  0  0  0  0  0  0  0  0  0  0  0
    1.0101   -5.8294   -0.3288 C   0  0  0  0  0  0  0  0  0  0  0  0
   -0.0244   -6.0235   -0.9313 O   0  0  0  0  0  0  0  0  0  0  0  0
    1.4547   -6.7945    0.4737 N   0  0  0  0  0  0  0  0  0  0  0  0
    2.6795   -6.6995    1.2504 C   0  0  0  0  0  0  0  0  0  0  0  0
    3.4213   -5.4330    0.9745 C   0  0  0  0  0  0  0  0  0  0  0  0
    4.4727   -5.2575    1.5530 O   0  0  0  0  0  0  0  0  0  0  0  0
    0.6634   -8.0228    0.5803 C   0  0  2  0  0  0  0  0  0  0  0  0
   -0.2290   -7.9523   -0.0416 H   0  0  0  0  0  0  0  0  0  0  0  0
    0.2720   -8.2829    2.0531 C   0  0  0  0  0  0  0  0  0  0  0  0
    0.4185   -9.8197    2.1843 C   0  0  0  0  0  0  0  0  0  0  0  0
    1.6128  -10.1194    1.3536 N   0  3  2  0  0  0  0  0  0  0  0  0
    1.5090   -9.2411    0.1653 C   0  0  0  0  0  0  0  0  0  0  0  0
    1.6027  -11.5296    0.9421 C   0  0  0  0  0  0  0  0  0  0  0  0
    1.7799  -12.4213    2.1727 C   0  0  0  0  0  0  0  0  0  0  0  0
    1.7695  -13.8679    1.7505 C   0  0  0  0  0  0  0  0  0  0  0  0
    2.8222  -14.6972    2.0961 C   0  0  0  0  0  0  0  0  0  0  0  0
    2.8128  -15.9656    1.7263 N   0  0  0  0  0  0  0  0  0  0  0  0
    1.7982  -16.4423    1.0265 C   0  0  0  0  0  0  0  0  0  0  0  0
    0.7459  -15.6133    0.6810 C   0  0  0  0  0  0  0  0  0  0  0  0
    0.7528  -14.3459    1.0551 N   0  0  0  0  0  0  0  0  0  0  0  0
    4.9185   -3.2175    0.9929 C   0  0  0  0  0  0  0  0  0  0  0  0
    6.2447   -3.3922    0.6433 C   0  0  0  0  0  0  0  0  0  0  0  0
    7.2311   -3.3320    1.6099 C   0  0  0  0  0  0  0  0  0  0  0  0
    6.8923   -3.0967    2.9326 C   0  0  0  0  0  0  0  0  0  0  0  0
    5.5564   -2.9208    3.2847 C   0  0  0  0  0  0  0  0  0  0  0  0
    4.5737   -2.9767    2.3097 C   0  0  0  0  0  0  0  0  0  0  0  0
    5.4847   -2.7062    4.6308 O   0  0  0  0  0  0  0  0  0  0  0  0
    6.7454   -3.1578    5.1598 C   0  0  0  0  0  0  0  0  0  0  0  0
    7.6575   -2.9923    4.0581 O   0  0  0  0  0  0  0  0  0  0  0  0
   -1.2129    1.6275    0.2892 H   0  0  0  0  0  0  0  0  0  0  0  0
    0.7608    3.0438    0.3326 H   0  0  0  0  0  0  0  0  0  0  0  0
    3.0401    2.0942    0.2509 H   0  0  0  0  0  0  0  0  0  0  0  0
   -1.0354   -0.8236    0.1495 H   0  0  0  0  0  0  0  0  0  0  0  0
    0.4453   -3.6391    0.9818 H   0  0  0  0  0  0  0  0  0  0  0  0
   -0.0396   -3.2579   -0.6905 H   0  0  0  0  0  0  0  0  0  0  0  0
    2.4316   -6.7519    2.3105 H   0  0  0  0  0  0  0  0  0  0  0  0
    3.3254   -7.5403    0.9974 H   0  0  0  0  0  0  0  0  0  0  0  0
    0.9559   -7.7710    2.7301 H   0  0  0  0  0  0  0  0  0  0  0  0
   -0.7575   -7.9764    2.2385 H   0  0  0  0  0  0  0  0  0  0  0  0
    0.5914  -10.1024    3.2227 H   0  0  0  0  0  0  0  0  0  0  0  0
   -0.4622  -10.3254    1.7884 H   0  0  0  0  0  0  0  0  0  0  0  0
    1.0187   -9.7732   -0.6498 H   0  0  0  0  0  0  0  0  0  0  0  0
    2.5021   -8.9156   -0.1444 H   0  0  0  0  0  0  0  0  0  0  0  0
    0.6528  -11.7605    0.4598 H   0  0  0  0  0  0  0  0  0  0  0  0
    2.4187  -11.7097    0.2423 H   0  0  0  0  0  0  0  0  0  0  0  0
    2.7298  -12.1903    2.6549 H   0  0  0  0  0  0  0  0  0  0  0  0
    0.9639  -12.2411    2.8725 H   0  0  0  0  0  0  0  0  0  0  0  0
    3.6515  -14.3074    2.6677 H   0  0  0  0  0  0  0  0  0  0  0  0
    1.7907  -17.4791    0.7239 H   0  0  0  0  0  0  0  0  0  0  0  0
   -0.0832  -16.0030    0.1091 H   0  0  0  0  0  0  0  0  0  0  0  0
    6.5106   -3.5765   -0.3871 H   0  0  0  0  0  0  0  0  0  0  0  0
    8.2662   -3.4689    1.3340 H   0  0  0  0  0  0  0  0  0  0  0  0
    3.5373   -2.8361    2.5792 H   0  0  0  0  0  0  0  0  0  0  0  0
    7.0495   -2.5402    6.0049 H   0  0  0  0  0  0  0  0  0  0  0  0
    6.6845   -4.2060    5.4525 H   0  0  0  0  0  0  0  0  0  0  0  0
    2.4555   -9.9118    1.8681 H   0  0  0  0  0  0  0  0  0  0  0  0
  1  6  2  0  0  0  0
  1  2  1  0  0  0  0
  1 46  1  0  0  0  0
  2  3  2  0  0  0  0
  2 47  1  0  0  0  0
  3  4  1  0  0  0  0
  3 48  1  0  0  0  0
  4  9  1  0  0  0  0
  4  5  2  0  0  0  0
  5  6  1  0  0  0  0
  5  7  1  0  0  0  0
  6 49  1  0  0  0  0
  7 16  1  0  0  0  0
  7  8  2  0  0  0  0
  8  9  1  0  0  0  0
  8 11  1  0  0  0  0
  9 10  1  0  0  0  0
 11 12  1  0  0  0  0
 11 13  1  0  0  0  0
 11 37  1  0  0  0  0
 13 21  1  0  0  0  0
 13 14  1  0  0  0  0
 14 15  1  0  0  0  0
 14 16  1  0  0  0  0
 14 17  1  0  0  0  0
 16 50  1  0  0  0  0
 16 51  1  0  0  0  0
 17 18  2  0  0  0  0
 17 19  1  0  0  0  0
 19 20  1  0  0  0  0
 19 23  1  0  0  0  0
 20 21  1  0  0  0  0
 20 52  1  0  0  0  0
 20 53  1  0  0  0  0
 21 22  2  0  0  0  0
 23 24  1  0  0  0  0
 23 28  1  0  0  0  0
 23 25  1  0  0  0  0
 25 26  1  0  0  0  0
 25 54  1  0  0  0  0
 25 55  1  0  0  0  0
 26 27  1  0  0  0  0
 26 56  1  0  0  0  0
 26 57  1  0  0  0  0
 27 28  1  0  0  0  0
 27 29  1  0  0  0  0
 27 72  1  0  0  0  0
 28 58  1  0  0  0  0
 28 59  1  0  0  0  0
 29 30  1  0  0  0  0
 29 60  1  0  0  0  0
 29 61  1  0  0  0  0
 30 31  1  0  0  0  0
 30 62  1  0  0  0  0
 30 63  1  0  0  0  0
 31 36  2  0  0  0  0
 31 32  1  0  0  0  0
 32 33  2  0  0  0  0
 32 64  1  0  0  0  0
 33 34  1  0  0  0  0
 34 35  2  0  0  0  0
 34 65  1  0  0  0  0
 35 36  1  0  0  0  0
 35 66  1  0  0  0  0
 37 42  2  0  0  0  0
 37 38  1  0  0  0  0
 38 39  2  0  0  0  0
 38 67  1  0  0  0  0
 39 40  1  0  0  0  0
 39 68  1  0  0  0  0
 40 45  1  0  0  0  0
 40 41  2  0  0  0  0
 41 42  1  0  0  0  0
 41 43  1  0  0  0  0
 42 69  1  0  0  0  0
 43 44  1  0  0  0  0
 44 45  1  0  0  0  0
 44 70  1  0  0  0  0
 44 71  1  0  0  0  0
M  CHG  1  27   1
M  END
$$$$
CHEMBL305427
  -OEChem-07121202283D

 54 56  0     0  0  0  0  0  0999 V2000
   -0.0173    1.4248    0.0099 C   0  0  0  0  0  0  0  0  0  0  0  0
    0.0021   -0.0041    0.0020 O   0  0  0  0  0  0  0  0  0  0  0  0
   -1.2011   -0.6379    0.0101 C   0  0  0  0  0  0  0  0  0  0  0  0
   -2.3708    0.1001    0.0195 C   0  0  0  0  0  0  0  0  0  0  0  0
   -3.6060   -0.5514    0.0278 C   0  0  0  0  0  0  0  0  0  0  0  0
   -3.6567   -1.9470    0.0266 C   0  0  0  0  0  0  0  0  0  0  0  0
   -2.4842   -2.6804    0.0171 C   0  0  0  0  0  0  0  0  0  0  0  0
   -1.2544   -2.0287    0.0031 C   0  0  0  0  0  0  0  0  0  0  0  0
   -0.1030   -2.7521   -0.0122 O   0  0  0  0  0  0  0  0  0  0  0  0
    0.4589   -3.1040    1.2537 C   0  0  0  0  0  0  0  0  0  0  0  0
   -2.5330   -4.0395    0.0159 O   0  0  0  0  0  0  0  0  0  0  0  0
   -3.8286   -4.6422    0.0247 C   0  0  0  0  0  0  0  0  0  0  0  0
   -4.8573    0.2347    0.0384 C   0  0  0  0  0  0  0  0  0  0  0  0
   -5.7621    0.1807    1.1967 C   0  0  0  0  0  0  0  0  0  0  0  0
   -5.4743   -0.6040    2.3109 C   0  0  0  0  0  0  0  0  0  0  0  0
   -6.3532   -0.6245    3.3780 C   0  0  0  0  0  0  0  0  0  0  0  0
   -7.5262    0.1361    3.3451 C   0  0  0  0  0  0  0  0  0  0  0  0
   -7.8241    0.9190    2.2463 C   0  0  0  0  0  0  0  0  0  0  0  0
   -6.9474    0.9497    1.1628 C   0  0  0  0  0  0  0  0  0  0  0  0
   -7.2248    1.7684   -0.0250 C   0  0  0  0  0  0  0  0  0  0  0  0
   -6.3567    1.7755   -1.0536 N   0  0  0  0  0  0  0  0  0  0  0  0
   -5.1909    1.0353   -1.0374 C   0  0  0  0  0  0  0  0  0  0  0  0
   -4.2885    1.0958   -2.1915 C   0  0  0  0  0  0  0  0  0  0  0  0
   -3.2604    0.4462   -2.1942 O   0  0  0  0  0  0  0  0  0  0  0  0
   -4.5987    1.8723   -3.2503 O   0  0  0  0  0  0  0  0  0  0  0  0
   -3.6740    1.8833   -4.3398 C   0  0  0  0  0  0  0  0  0  0  0  0
   -8.2392    2.4396   -0.0791 O   0  0  0  0  0  0  0  0  0  0  0  0
   -8.3800    0.1046    4.4020 O   0  0  0  0  0  0  0  0  0  0  0  0
   -9.5606    0.9040    4.3062 C   0  0  0  0  0  0  0  0  0  0  0  0
   -6.0755   -1.3891    4.4658 O   0  0  0  0  0  0  0  0  0  0  0  0
   -4.8616   -2.1426    4.4364 C   0  0  0  0  0  0  0  0  0  0  0  0
    1.0053    1.8021    0.0021 H   0  0  0  0  0  0  0  0  0  0  0  0
   -0.5445    1.7859   -0.8732 H   0  0  0  0  0  0  0  0  0  0  0  0
   -0.5275    1.7763    0.9067 H   0  0  0  0  0  0  0  0  0  0  0  0
   -2.3289    1.1792    0.0208 H   0  0  0  0  0  0  0  0  0  0  0  0
   -4.6107   -2.4531    0.0333 H   0  0  0  0  0  0  0  0  0  0  0  0
    1.3725   -3.6781    1.0987 H   0  0  0  0  0  0  0  0  0  0  0  0
    0.6899   -2.1976    1.8133 H   0  0  0  0  0  0  0  0  0  0  0  0
   -0.2569   -3.7048    1.8146 H   0  0  0  0  0  0  0  0  0  0  0  0
   -4.3682   -4.3306    0.9190 H   0  0  0  0  0  0  0  0  0  0  0  0
   -4.3813   -4.3285   -0.8609 H   0  0  0  0  0  0  0  0  0  0  0  0
   -3.7247   -5.7272    0.0227 H   0  0  0  0  0  0  0  0  0  0  0  0
   -4.5698   -1.1935    2.3410 H   0  0  0  0  0  0  0  0  0  0  0  0
   -8.7318    1.5039    2.2267 H   0  0  0  0  0  0  0  0  0  0  0  0
   -2.7047    2.2386   -3.9900 H   0  0  0  0  0  0  0  0  0  0  0  0
   -3.5691    0.8739   -4.7375 H   0  0  0  0  0  0  0  0  0  0  0  0
   -4.0429    2.5459   -5.1228 H   0  0  0  0  0  0  0  0  0  0  0  0
  -10.1528    0.7876    5.2139 H   0  0  0  0  0  0  0  0  0  0  0  0
   -9.2818    1.9509    4.1860 H   0  0  0  0  0  0  0  0  0  0  0  0
  -10.1478    0.5833    3.4457 H   0  0  0  0  0  0  0  0  0  0  0  0
   -4.0152   -1.4638    4.3318 H   0  0  0  0  0  0  0  0  0  0  0  0
   -4.7620   -2.7073    5.3634 H   0  0  0  0  0  0  0  0  0  0  0  0
   -4.8818   -2.8312    3.5918 H   0  0  0  0  0  0  0  0  0  0  0  0
   -6.5548    2.3212   -1.8307 H   0  0  0  0  0  0  0  0  0  0  0  0
  1  2  1  0  0  0  0
  1 32  1  0  0  0  0
  1 33  1  0  0  0  0
  1 34  1  0  0  0  0
  2  3  1  0  0  0  0
  3  8  2  0  0  0  0
  3  4  1  0  0  0  0
  4  5  2  0  0  0  0
  4 35  1  0  0  0  0
  5  6  1  0  0  0  0
  5 13  1  0  0  0  0
  6  7  2  0  0  0  0
  6 36  1  0  0  0  0
  7  8  1  0  0  0  0
  7 11  1  0  0  0  0
  8  9  1  0  0  0  0
  9 10  1  0  0  0  0
 10 37  1  0  0  0  0
 10 38  1  0  0  0  0
 10 39  1  0  0  0  0
 11 12  1  0  0  0  0
 12 40  1  0  0  0  0
 12 41  1  0  0  0  0
 12 42  1  0  0  0  0
 13 22  2  0  0  0  0
 13 14  1  0  0  0  0
 14 19  2  0  0  0  0
 14 15  1  0  0  0  0
 15 16  2  0  0  0  0
 15 43  1  0  0  0  0
 16 17  1  0  0  0  0
 16 30  1  0  0  0  0
 17 18  2  0  0  0  0
 17 28  1  0  0  0  0
 18 19  1  0  0  0  0
 18 44  1  0  0  0  0
 19 20  1  0  0  0  0
 20 21  1  0  0  0  0
 20 27  2  0  0  0  0
 21 22  1  0  0  0  0
 21 54  1  0  0  0  0
 22 23  1  0  0  0  0
 23 24  2  0  0  0  0
 23 25  1  0  0  0  0
 25 26  1  0  0  0  0
 26 45  1  0  0  0  0
 26 46  1  0  0  0  0
 26 47  1  0  0  0  0
 28 29  1  0  0  0  0
 29 48  1  0  0  0  0
 29 49  1  0  0  0  0
 29 50  1  0  0  0  0
 30 31  1  0  0  0  0
 31 51  1  0  0  0  0
 31 52  1  0  0  0  0
 31 53  1  0  0  0  0
M  END
$$$$
CHEMBL70432
  -OEChem-07121202283D

 57 59  0     0  0  0  0  0  0999 V2000
   -0.0178    1.4608    0.0101 C   0  0  0  0  0  0  0  0  0  0  0  0
    0.0021   -0.0041    0.0020 N   0  0  0  0  0  0  0  0  0  0  0  0
   -1.1977   -0.6880    0.0041 C   0  0  0  0  0  0  0  0  0  0  0  0
   -1.2429   -2.0691   -0.0037 C   0  0  0  0  0  0  0  0  0  0  0  0
    0.0184   -2.8254   -0.0144 C   0  0  0  0  0  0  0  0  0  0  0  0
    0.0335   -4.2182   -0.0230 C   0  0  0  0  0  0  0  0  0  0  0  0
    1.2426   -4.8886   -0.0334 C   0  0  0  0  0  0  0  0  0  0  0  0
    2.4472   -4.1783   -0.0353 C   0  0  0  0  0  0  0  0  0  0  0  0
    2.4469   -2.7966   -0.0264 C   0  0  0  0  0  0  0  0  0  0  0  0
    1.2354   -2.1069   -0.0163 C   0  0  0  0  0  0  0  0  0  0  0  0
    1.1891   -0.6386   -0.0127 C   0  0  0  0  0  0  0  0  0  0  0  0
    2.2234    0.0037   -0.0187 O   0  0  0  0  0  0  0  0  0  0  0  0
    3.6273   -4.8522   -0.0455 O   0  0  0  0  0  0  0  0  0  0  0  0
    4.8221   -4.0683   -0.0469 C   0  0  0  0  0  0  0  0  0  0  0  0
    1.2606   -6.2468   -0.0414 O   0  0  0  0  0  0  0  0  0  0  0  0
   -0.0039   -6.9124   -0.0385 C   0  0  0  0  0  0  0  0  0  0  0  0
   -2.5406   -2.7762   -0.0008 C   0  0  0  0  0  0  0  0  0  0  0  0
   -2.9069   -3.5612    1.0946 C   0  0  0  0  0  0  0  0  0  0  0  0
   -4.1221   -4.2216    1.0951 C   0  0  0  0  0  0  0  0  0  0  0  0
   -4.9794   -4.1048    0.0049 C   0  0  0  0  0  0  0  0  0  0  0  0
   -4.6165   -3.3234   -1.0882 C   0  0  0  0  0  0  0  0  0  0  0  0
   -3.4051   -2.6560   -1.0909 C   0  0  0  0  0  0  0  0  0  0  0  0
   -5.4561   -3.2116   -2.1521 O   0  0  0  0  0  0  0  0  0  0  0  0
   -5.0200   -2.3935   -3.2396 C   0  0  0  0  0  0  0  0  0  0  0  0
   -6.1735   -4.7555    0.0076 O   0  0  0  0  0  0  0  0  0  0  0  0
   -7.2937   -4.0534    0.5503 C   0  0  0  0  0  0  0  0  0  0  0  0
   -4.4794   -4.9861    2.1616 O   0  0  0  0  0  0  0  0  0  0  0  0
   -3.5513   -5.0618    3.2456 C   0  0  0  0  0  0  0  0  0  0  0  0
   -2.4531    0.0692    0.0153 C   0  0  0  0  0  0  0  0  0  0  0  0
   -3.5178   -0.5186    0.0173 O   0  0  0  0  0  0  0  0  0  0  0  0
   -2.4273    1.4181    0.0234 O   0  0  0  0  0  0  0  0  0  0  0  0
   -3.6879    2.0911    0.0341 C   0  0  0  0  0  0  0  0  0  0  0  0
    1.0048    1.8381    0.0023 H   0  0  0  0  0  0  0  0  0  0  0  0
   -0.5450    1.8219   -0.8730 H   0  0  0  0  0  0  0  0  0  0  0  0
   -0.5280    1.8123    0.9069 H   0  0  0  0  0  0  0  0  0  0  0  0
   -0.8941   -4.7713   -0.0213 H   0  0  0  0  0  0  0  0  0  0  0  0
    3.3806   -2.2537   -0.0272 H   0  0  0  0  0  0  0  0  0  0  0  0
    4.8394   -3.4340   -0.9331 H   0  0  0  0  0  0  0  0  0  0  0  0
    4.8486   -3.4449    0.8468 H   0  0  0  0  0  0  0  0  0  0  0  0
    5.6896   -4.7282   -0.0555 H   0  0  0  0  0  0  0  0  0  0  0  0
    0.1532   -7.9910   -0.0456 H   0  0  0  0  0  0  0  0  0  0  0  0
   -0.5599   -6.6321    0.8562 H   0  0  0  0  0  0  0  0  0  0  0  0
   -0.5695   -6.6218   -0.9237 H   0  0  0  0  0  0  0  0  0  0  0  0
   -2.2417   -3.6527    1.9405 H   0  0  0  0  0  0  0  0  0  0  0  0
   -3.1260   -2.0460   -1.9373 H   0  0  0  0  0  0  0  0  0  0  0  0
   -5.7811   -2.3904   -4.0199 H   0  0  0  0  0  0  0  0  0  0  0  0
   -4.8580   -1.3752   -2.8861 H   0  0  0  0  0  0  0  0  0  0  0  0
   -4.0883   -2.7908   -3.6423 H   0  0  0  0  0  0  0  0  0  0  0  0
   -7.0948   -3.8019    1.5921 H   0  0  0  0  0  0  0  0  0  0  0  0
   -7.4598   -3.1389   -0.0189 H   0  0  0  0  0  0  0  0  0  0  0  0
   -8.1808   -4.6841    0.4918 H   0  0  0  0  0  0  0  0  0  0  0  0
   -2.6093   -5.4785    2.8890 H   0  0  0  0  0  0  0  0  0  0  0  0
   -3.3783   -4.0630    3.6462 H   0  0  0  0  0  0  0  0  0  0  0  0
   -3.9584   -5.7017    4.0284 H   0  0  0  0  0  0  0  0  0  0  0  0
   -3.5244    3.1688    0.0399 H   0  0  0  0  0  0  0  0  0  0  0  0
   -4.2550    1.8144   -0.8546 H   0  0  0  0  0  0  0  0  0  0  0  0
   -4.2457    1.8035    0.9253 H   0  0  0  0  0  0  0  0  0  0  0  0
  1  2  1  0  0  0  0
  1 33  1  0  0  0  0
  1 34  1  0  0  0  0
  1 35  1  0  0  0  0
  2 11  1  0  0  0  0
  2  3  1  0  0  0  0
  3  4  2  0  0  0  0
  3 29  1  0  0  0  0
  4  5  1  0  0  0  0
  4 17  1  0  0  0  0
  5 10  2  0  0  0  0
  5  6  1  0  0  0  0
  6  7  2  0  0  0  0
  6 36  1  0  0  0  0
  7  8  1  0  0  0  0
  7 15  1  0  0  0  0
  8  9  2  0  0  0  0
  8 13  1  0  0  0  0
  9 10  1  0  0  0  0
  9 37  1  0  0  0  0
 10 11  1  0  0  0  0
 11 12  2  0  0  0  0
 13 14  1  0  0  0  0
 14 38  1  0  0  0  0
 14 39  1  0  0  0  0
 14 40  1  0  0  0  0
 15 16  1  0  0  0  0
 16 41  1  0  0  0  0
 16 42  1  0  0  0  0
 16 43  1  0  0  0  0
 17 22  2  0  0  0  0
 17 18  1  0  0  0  0
 18 19  2  0  0  0  0
 18 44  1  0  0  0  0
 19 20  1  0  0  0  0
 19 27  1  0  0  0  0
 20 21  2  0  0  0  0
 20 25  1  0  0  0  0
 21 22  1  0  0  0  0
 21 23  1  0  0  0  0
 22 45  1  0  0  0  0
 23 24  1  0  0  0  0
 24 46  1  0  0  0  0
 24 47  1  0  0  0  0
 24 48  1  0  0  0  0
 25 26  1  0  0  0  0
 26 49  1  0  0  0  0
 26 50  1  0  0  0  0
 26 51  1  0  0  0  0
 27 28  1  0  0  0  0
 28 52  1  0  0  0  0
 28 53  1  0  0  0  0
 28 54  1  0  0  0  0
 29 30  2  0  0  0  0
 29 31  1  0  0  0  0
 31 32  1  0  0  0  0
 32 55  1  0  0  0  0
 32 56  1  0  0  0  0
 32 57  1  0  0  0  0
M  END
$$$$
CHEMBL183877
  -OEChem-07121202283D

 62 65  0     0  0  0  0  0  0999 V2000
   -0.0187    1.5258    0.0104 C   0  0  0  0  0  0  0  0  0  0  0  0
    0.0021   -0.0041    0.0020 C   0  0  0  0  0  0  0  0  0  0  0  0
    0.7182   -0.4975   -1.2568 C   0  0  0  0  0  0  0  0  0  0  0  0
    0.7386   -2.0043   -1.2651 C   0  0  0  0  0  0  0  0  0  0  0  0
    1.7137   -2.8048   -0.7186 C   0  0  0  0  0  0  0  0  0  0  0  0
    2.8611   -2.5706   -0.0612 N   0  0  0  0  0  0  0  0  0  0  0  0
    3.6032   -3.5827    0.3491 C   0  0  0  0  0  0  0  0  0  0  0  0
    3.2345   -4.8543    0.1225 N   0  0  0  0  0  0  0  0  0  0  0  0
    2.1201   -5.1337   -0.5166 C   0  0  0  0  0  0  0  0  0  0  0  0
    1.3231   -4.1113   -0.9581 N   0  0  0  0  0  0  0  0  0  0  0  0
    0.1444   -4.0546   -1.6302 C   0  0  0  0  0  0  0  0  0  0  0  0
   -0.1913   -2.8026   -1.8002 N   0  0  0  0  0  0  0  0  0  0  0  0
   -0.6520   -5.2446   -2.0998 C   0  0  0  0  0  0  0  0  0  0  0  0
    1.7650   -6.4167   -0.7361 O   0  5  0  0  0  0  0  0  0  0  0  0
    4.8654   -3.3110    1.0719 C   0  0  0  0  0  0  0  0  0  0  0  0
    5.6652   -4.3676    1.5079 C   0  0  0  0  0  0  0  0  0  0  0  0
    6.8405   -4.1084    2.1812 C   0  0  0  0  0  0  0  0  0  0  0  0
    7.2308   -2.8028    2.4266 C   0  0  0  0  0  0  0  0  0  0  0  0
    6.4470   -1.7482    2.0002 C   0  0  0  0  0  0  0  0  0  0  0  0
    5.2660   -1.9923    1.3167 C   0  0  0  0  0  0  0  0  0  0  0  0
    4.4981   -0.9566    0.8914 O   0  0  0  0  0  0  0  0  0  0  0  0
    4.9704    0.3615    1.1772 C   0  0  0  0  0  0  0  0  0  0  0  0
    3.9804    1.3890    0.6250 C   0  0  0  0  0  0  0  0  0  0  0  0
    7.8493   -5.4440    2.7317 S   0  0  0  0  0  0  0  0  0  0  0  0
    8.6239   -4.9482    3.8149 O   0  0  0  0  0  0  0  0  0  0  0  0
    6.9950   -6.5723    2.8597 O   0  0  0  0  0  0  0  0  0  0  0  0
    8.9118   -5.7911    1.5099 N   0  0  0  0  0  0  0  0  0  0  0  0
    8.5682   -6.7679    0.4654 C   0  0  0  0  0  0  0  0  0  0  0  0
    8.8126   -6.1234   -0.9032 C   0  0  0  0  0  0  0  0  0  0  0  0
   10.1879   -5.6104   -0.9608 N   0  0  0  0  0  0  0  0  0  0  0  0
   10.4034   -4.5507    0.0334 C   0  0  0  0  0  0  0  0  0  0  0  0
   10.2217   -5.1262    1.4370 C   0  0  0  0  0  0  0  0  0  0  0  0
   10.5179   -5.1392   -2.3125 C   0  0  0  0  0  0  0  0  0  0  0  0
    1.0039    1.9031    0.0027 H   0  0  0  0  0  0  0  0  0  0  0  0
   -0.5459    1.8868   -0.8726 H   0  0  0  0  0  0  0  0  0  0  0  0
   -0.5289    1.8773    0.9072 H   0  0  0  0  0  0  0  0  0  0  0  0
    0.5293   -0.3651    0.8851 H   0  0  0  0  0  0  0  0  0  0  0  0
   -1.0205   -0.3814    0.0098 H   0  0  0  0  0  0  0  0  0  0  0  0
    0.1910   -0.1364   -2.1398 H   0  0  0  0  0  0  0  0  0  0  0  0
    1.7408   -0.1202   -1.2645 H   0  0  0  0  0  0  0  0  0  0  0  0
   -1.3534   -5.5428   -1.3206 H   0  0  0  0  0  0  0  0  0  0  0  0
   -1.2027   -4.9799   -3.0025 H   0  0  0  0  0  0  0  0  0  0  0  0
    0.0241   -6.0718   -2.3161 H   0  0  0  0  0  0  0  0  0  0  0  0
    5.3641   -5.3874    1.3188 H   0  0  0  0  0  0  0  0  0  0  0  0
    8.1526   -2.6079    2.9545 H   0  0  0  0  0  0  0  0  0  0  0  0
    6.7572   -0.7322    2.1953 H   0  0  0  0  0  0  0  0  0  0  0  0
    5.0623    0.4886    2.2558 H   0  0  0  0  0  0  0  0  0  0  0  0
    5.9443    0.5077    0.7099 H   0  0  0  0  0  0  0  0  0  0  0  0
    3.8885    1.2618   -0.4537 H   0  0  0  0  0  0  0  0  0  0  0  0
    3.0065    1.2428    1.0923 H   0  0  0  0  0  0  0  0  0  0  0  0
    4.3407    2.3943    0.8430 H   0  0  0  0  0  0  0  0  0  0  0  0
    9.1959   -7.6527    0.5708 H   0  0  0  0  0  0  0  0  0  0  0  0
    7.5185   -7.0473    0.5564 H   0  0  0  0  0  0  0  0  0  0  0  0
    8.6689   -6.8676   -1.6866 H   0  0  0  0  0  0  0  0  0  0  0  0
    8.1115   -5.3016   -1.0487 H   0  0  0  0  0  0  0  0  0  0  0  0
   11.4134   -4.1542   -0.0707 H   0  0  0  0  0  0  0  0  0  0  0  0
    9.6801   -3.7507   -0.1251 H   0  0  0  0  0  0  0  0  0  0  0  0
   10.2648   -4.3207    2.1700 H   0  0  0  0  0  0  0  0  0  0  0  0
   11.0115   -5.8502    1.6376 H   0  0  0  0  0  0  0  0  0  0  0  0
    9.8342   -4.3388   -2.5952 H   0  0  0  0  0  0  0  0  0  0  0  0
   11.5414   -4.7648   -2.3269 H   0  0  0  0  0  0  0  0  0  0  0  0
   10.4228   -5.9645   -3.0182 H   0  0  0  0  0  0  0  0  0  0  0  0
  1  2  1  0  0  0  0
  1 34  1  0  0  0  0
  1 35  1  0  0  0  0
  1 36  1  0  0  0  0
  2  3  1  0  0  0  0
  2 37  1  0  0  0  0
  2 38  1  0  0  0  0
  3  4  1  0  0  0  0
  3 39  1  0  0  0  0
  3 40  1  0  0  0  0
  4 12  1  0  0  0  0
  4  5  2  0  0  0  0
  5 10  1  0  0  0  0
  5  6  1  0  0  0  0
  6  7  2  0  0  0  0
  7  8  1  0  0  0  0
  7 15  1  0  0  0  0
  8  9  2  0  0  0  0
  9 10  1  0  0  0  0
  9 14  1  0  0  0  0
 10 11  1  0  0  0  0
 11 12  2  0  0  0  0
 11 13  1  0  0  0  0
 13 41  1  0  0  0  0
 13 42  1  0  0  0  0
 13 43  1  0  0  0  0
 15 20  2  0  0  0  0
 15 16  1  0  0  0  0
 16 17  2  0  0  0  0
 16 44  1  0  0  0  0
 17 18  1  0  0  0  0
 17 24  1  0  0  0  0
 18 19  2  0  0  0  0
 18 45  1  0  0  0  0
 19 20  1  0  0  0  0
 19 46  1  0  0  0  0
 20 21  1  0  0  0  0
 21 22  1  0  0  0  0
 22 23  1  0  0  0  0
 22 47  1  0  0  0  0
 22 48  1  0  0  0  0
 23 49  1  0  0  0  0
 23 50  1  0  0  0  0
 23 51  1  0  0  0  0
 24 25  2  0  0  0  0
 24 26  2  0  0  0  0
 24 27  1  0  0  0  0
 27 32  1  0  0  0  0
 27 28  1  0  0  0  0
 28 29  1  0  0  0  0
 28 52  1  0  0  0  0
 28 53  1  0  0  0  0
 29 30  1  0  0  0  0
 29 54  1  0  0  0  0
 29 55  1  0  0  0  0
 30 31  1  0  0  0  0
 30 33  1  0  0  0  0
 31 32  1  0  0  0  0
 31 56  1  0  0  0  0
 31 57  1  0  0  0  0
 32 58  1  0  0  0  0
 32 59  1  0  0  0  0
 33 60  1  0  0  0  0
 33 61  1  0  0  0  0
 33 62  1  0  0  0  0
M  CHG  1  14  -1
M  END
$$$$
CHEMBL183877
  -OEChem-07121202283D

 64 67  0     0  0  0  0  0  0999 V2000
   -0.0187    1.5258    0.0104 C   0  0  0  0  0  0  0  0  0  0  0  0
    0.0021   -0.0041    0.0020 C   0  0  0  0  0  0  0  0  0  0  0  0
    0.7421   -0.5109    1.2415 C   0  0  0  0  0  0  0  0  0  0  0  0
    0.7625   -2.0177    1.2333 C   0  0  0  0  0  0  0  0  0  0  0  0
   -0.1702   -2.8263    1.7794 C   0  0  0  0  0  0  0  0  0  0  0  0
   -1.3552   -2.6070    2.4697 N   0  0  0  0  0  0  0  0  0  0  0  0
   -2.0790   -3.6866    2.8942 C   0  0  0  0  0  0  0  0  0  0  0  0
   -1.6545   -4.9142    2.6501 N   0  0  0  0  0  0  0  0  0  0  0  0
   -0.5174   -5.1428    1.9877 C   0  0  0  0  0  0  0  0  0  0  0  0
    0.2369   -4.1216    1.5450 N   0  0  0  0  0  0  0  0  0  0  0  0
    1.4109   -4.0480    0.8599 C   0  0  0  0  0  0  0  0  0  0  0  0
    1.7087   -2.7906    0.6763 N   0  0  0  0  0  0  0  0  0  0  0  0
    2.2278   -5.2228    0.3870 C   0  0  0  0  0  0  0  0  0  0  0  0
   -0.1600   -6.2886    1.7825 O   0  0  0  0  0  0  0  0  0  0  0  0
   -3.3397   -3.4802    3.6287 C   0  0  0  0  0  0  0  0  0  0  0  0
   -3.7991   -2.1854    3.8869 C   0  0  0  0  0  0  0  0  0  0  0  0
   -4.9786   -1.9995    4.5742 C   0  0  0  0  0  0  0  0  0  0  0  0
   -5.7126   -3.0905    5.0114 C   0  0  0  0  0  0  0  0  0  0  0  0
   -5.2706   -4.3749    4.7633 C   0  0  0  0  0  0  0  0  0  0  0  0
   -4.0887   -4.5814    4.0680 C   0  0  0  0  0  0  0  0  0  0  0  0
   -3.6564   -5.8428    3.8183 O   0  0  0  0  0  0  0  0  0  0  0  0
   -4.4718   -6.9145    4.2962 C   0  0  0  0  0  0  0  0  0  0  0  0
   -3.8275   -8.2511    3.9231 C   0  0  0  0  0  0  0  0  0  0  0  0
   -5.5561   -0.3669    4.8993 S   0  0  0  0  0  0  0  0  0  0  0  0
   -6.4065   -0.4555    6.0344 O   0  0  0  0  0  0  0  0  0  0  0  0
   -4.4165    0.4813    4.8655 O   0  0  0  0  0  0  0  0  0  0  0  0
   -6.5142    0.0767    3.6236 N   0  0  0  0  0  0  0  0  0  0  0  0
   -5.9428    0.7483    2.4461 C   0  0  0  0  0  0  0  0  0  0  0  0
   -6.4147    0.0099    1.1891 C   0  0  0  0  0  0  0  0  0  0  0  0
   -7.8810   -0.0683    1.1901 N   0  3  0  0  0  0  0  0  0  0  0  0
   -8.3375   -0.8842    2.3223 C   0  0  0  0  0  0  0  0  0  0  0  0
   -7.9599   -0.1952    3.6330 C   0  0  0  0  0  0  0  0  0  0  0  0
   -8.3378   -0.6777   -0.0660 C   0  0  0  0  0  0  0  0  0  0  0  0
    1.0039    1.9031    0.0027 H   0  0  0  0  0  0  0  0  0  0  0  0
   -0.5459    1.8868   -0.8726 H   0  0  0  0  0  0  0  0  0  0  0  0
   -0.5289    1.8773    0.9072 H   0  0  0  0  0  0  0  0  0  0  0  0
   -1.0205   -0.3814    0.0098 H   0  0  0  0  0  0  0  0  0  0  0  0
    0.5123   -0.3556   -0.8948 H   0  0  0  0  0  0  0  0  0  0  0  0
    1.7647   -0.1336    1.2338 H   0  0  0  0  0  0  0  0  0  0  0  0
    0.2319   -0.1594    2.1383 H   0  0  0  0  0  0  0  0  0  0  0  0
    1.9069   -5.5089   -0.6146 H   0  0  0  0  0  0  0  0  0  0  0  0
    3.2822   -4.9473    0.3659 H   0  0  0  0  0  0  0  0  0  0  0  0
    2.0852   -6.0621    1.0678 H   0  0  0  0  0  0  0  0  0  0  0  0
   -3.2302   -1.3321    3.5484 H   0  0  0  0  0  0  0  0  0  0  0  0
   -6.6359   -2.9352    5.5497 H   0  0  0  0  0  0  0  0  0  0  0  0
   -5.8483   -5.2199    5.1077 H   0  0  0  0  0  0  0  0  0  0  0  0
   -4.5638   -6.8456    5.3802 H   0  0  0  0  0  0  0  0  0  0  0  0
   -5.4608   -6.8488    3.8427 H   0  0  0  0  0  0  0  0  0  0  0  0
   -4.4495   -9.0687    4.2876 H   0  0  0  0  0  0  0  0  0  0  0  0
   -3.7355   -8.3201    2.8392 H   0  0  0  0  0  0  0  0  0  0  0  0
   -2.8385   -8.3169    4.3766 H   0  0  0  0  0  0  0  0  0  0  0  0
   -6.2841    1.7829    2.4130 H   0  0  0  0  0  0  0  0  0  0  0  0
   -4.8545    0.7201    2.5006 H   0  0  0  0  0  0  0  0  0  0  0  0
   -6.0801    0.5499    0.3033 H   0  0  0  0  0  0  0  0  0  0  0  0
   -5.9970   -0.9968    1.1806 H   0  0  0  0  0  0  0  0  0  0  0  0
   -9.4198   -1.0032    2.2715 H   0  0  0  0  0  0  0  0  0  0  0  0
   -7.8616   -1.8639    2.2795 H   0  0  0  0  0  0  0  0  0  0  0  0
   -8.2046   -0.8469    4.4717 H   0  0  0  0  0  0  0  0  0  0  0  0
   -8.5084    0.7425    3.7217 H   0  0  0  0  0  0  0  0  0  0  0  0
   -7.9199   -1.6803   -0.1565 H   0  0  0  0  0  0  0  0  0  0  0  0
   -9.4263   -0.7364   -0.0666 H   0  0  0  0  0  0  0  0  0  0  0  0
   -8.0064   -0.0686   -0.9070 H   0  0  0  0  0  0  0  0  0  0  0  0
   -1.6635   -1.7047    2.6477 H   0  0  0  0  0  0  0  0  0  0  0  0
   -8.2661    0.8609    1.2698 H   0  0  0  0  0  0  0  0  0  0  0  0
  1  2  1  0  0  0  0
  1 34  1  0  0  0  0
  1 35  1  0  0  0  0
  1 36  1  0  0  0  0
  2  3  1  0  0  0  0
  2 37  1  0  0  0  0
  2 38  1  0  0  0  0
  3  4  1  0  0  0  0
  3 39  1  0  0  0  0
  3 40  1  0  0  0  0
  4 12  1  0  0  0  0
  4  5  2  0  0  0  0
  5 10  1  0  0  0  0
  5  6  1  0  0  0  0
  6  7  1  0  0  0  0
  6 63  1  0  0  0  0
  7  8  2  0  0  0  0
  7 15  1  0  0  0  0
  8  9  1  0  0  0  0
  9 10  1  0  0  0  0
  9 14  2  0  0  0  0
 10 11  1  0  0  0  0
 11 12  2  0  0  0  0
 11 13  1  0  0  0  0
 13 41  1  0  0  0  0
 13 42  1  0  0  0  0
 13 43  1  0  0  0  0
 15 20  2  0  0  0  0
 15 16  1  0  0  0  0
 16 17  2  0  0  0  0
 16 44  1  0  0  0  0
 17 18  1  0  0  0  0
 17 24  1  0  0  0  0
 18 19  2  0  0  0  0
 18 45  1  0  0  0  0
 19 20  1  0  0  0  0
 19 46  1  0  0  0  0
 20 21  1  0  0  0  0
 21 22  1  0  0  0  0
 22 23  1  0  0  0  0
 22 47  1  0  0  0  0
 22 48  1  0  0  0  0
 23 49  1  0  0  0  0
 23 50  1  0  0  0  0
 23 51  1  0  0  0  0
 24 25  2  0  0  0  0
 24 26  2  0  0  0  0
 24 27  1  0  0  0  0
 27 32  1  0  0  0  0
 27 28  1  0  0  0  0
 28 29  1  0  0  0  0
 28 52  1  0  0  0  0
 28 53  1  0  0  0  0
 29 30  1  0  0  0  0
 29 54  1  0  0  0  0
 29 55  1  0  0  0  0
 30 31  1  0  0  0  0
 30 33  1  0  0  0  0
 30 64  1  0  0  0  0
 31 32  1  0  0  0  0
 31 56  1  0  0  0  0
 31 57  1  0  0  0  0
 32 58  1  0  0  0  0
 32 59  1  0  0  0  0
 33 60  1  0  0  0  0
 33 61  1  0  0  0  0
 33 62  1  0  0  0  0
M  CHG  1  30   1
M  END
$$$$
CHEMBL183877
  -OEChem-07121202283D

 63 66  0     0  0  0  0  0  0999 V2000
   -0.0187    1.5258    0.0104 C   0  0  0  0  0  0  0  0  0  0  0  0
    0.0021   -0.0041    0.0020 C   0  0  0  0  0  0  0  0  0  0  0  0
    0.7182   -0.4975   -1.2568 C   0  0  0  0  0  0  0  0  0  0  0  0
    0.7386   -2.0043   -1.2651 C   0  0  0  0  0  0  0  0  0  0  0  0
    1.7137   -2.8048   -0.7186 C   0  0  0  0  0  0  0  0  0  0  0  0
    2.8611   -2.5706   -0.0612 N   0  0  0  0  0  0  0  0  0  0  0  0
    3.6032   -3.5827    0.3491 C   0  0  0  0  0  0  0  0  0  0  0  0
    3.2345   -4.8543    0.1225 N   0  0  0  0  0  0  0  0  0  0  0  0
    2.1201   -5.1337   -0.5166 C   0  0  0  0  0  0  0  0  0  0  0  0
    1.3231   -4.1113   -0.9581 N   0  0  0  0  0  0  0  0  0  0  0  0
    0.1444   -4.0546   -1.6302 C   0  0  0  0  0  0  0  0  0  0  0  0
   -0.1913   -2.8026   -1.8002 N   0  0  0  0  0  0  0  0  0  0  0  0
   -0.6520   -5.2446   -2.0998 C   0  0  0  0  0  0  0  0  0  0  0  0
    1.7650   -6.4167   -0.7361 O   0  5  0  0  0  0  0  0  0  0  0  0
    4.8654   -3.3110    1.0719 C   0  0  0  0  0  0  0  0  0  0  0  0
    5.6652   -4.3676    1.5079 C   0  0  0  0  0  0  0  0  0  0  0  0
    6.8405   -4.1084    2.1812 C   0  0  0  0  0  0  0  0  0  0  0  0
    7.2308   -2.8028    2.4266 C   0  0  0  0  0  0  0  0  0  0  0  0
    6.4470   -1.7482    2.0002 C   0  0  0  0  0  0  0  0  0  0  0  0
    5.2660   -1.9923    1.3167 C   0  0  0  0  0  0  0  0  0  0  0  0
    4.4981   -0.9566    0.8914 O   0  0  0  0  0  0  0  0  0  0  0  0
    4.9704    0.3615    1.1772 C   0  0  0  0  0  0  0  0  0  0  0  0
    3.9804    1.3890    0.6250 C   0  0  0  0  0  0  0  0  0  0  0  0
    7.8493   -5.4440    2.7317 S   0  0  0  0  0  0  0  0  0  0  0  0
    8.6239   -4.9482    3.8149 O   0  0  0  0  0  0  0  0  0  0  0  0
    6.9950   -6.5723    2.8597 O   0  0  0  0  0  0  0  0  0  0  0  0
    8.9118   -5.7911    1.5099 N   0  0  0  0  0  0  0  0  0  0  0  0
    8.5695   -6.7678    0.4644 C   0  0  0  0  0  0  0  0  0  0  0  0
    8.8327   -6.1282   -0.9028 C   0  0  0  0  0  0  0  0  0  0  0  0
   10.2175   -5.6430   -0.9568 N   0  3  0  0  0  0  0  0  0  0  0  0
   10.4096   -4.5687    0.0255 C   0  0  0  0  0  0  0  0  0  0  0  0
   10.2223   -5.1269    1.4357 C   0  0  0  0  0  0  0  0  0  0  0  0
   10.5025   -5.1296   -2.3033 C   0  0  0  0  0  0  0  0  0  0  0  0
    1.0039    1.9031    0.0027 H   0  0  0  0  0  0  0  0  0  0  0  0
   -0.5459    1.8868   -0.8726 H   0  0  0  0  0  0  0  0  0  0  0  0
   -0.5289    1.8773    0.9072 H   0  0  0  0  0  0  0  0  0  0  0  0
    0.5293   -0.3651    0.8851 H   0  0  0  0  0  0  0  0  0  0  0  0
   -1.0205   -0.3814    0.0098 H   0  0  0  0  0  0  0  0  0  0  0  0
    0.1910   -0.1364   -2.1398 H   0  0  0  0  0  0  0  0  0  0  0  0
    1.7408   -0.1202   -1.2645 H   0  0  0  0  0  0  0  0  0  0  0  0
   -1.3534   -5.5428   -1.3206 H   0  0  0  0  0  0  0  0  0  0  0  0
   -1.2027   -4.9799   -3.0025 H   0  0  0  0  0  0  0  0  0  0  0  0
    0.0241   -6.0718   -2.3161 H   0  0  0  0  0  0  0  0  0  0  0  0
    5.3641   -5.3874    1.3188 H   0  0  0  0  0  0  0  0  0  0  0  0
    8.1526   -2.6079    2.9545 H   0  0  0  0  0  0  0  0  0  0  0  0
    6.7572   -0.7322    2.1953 H   0  0  0  0  0  0  0  0  0  0  0  0
    5.0623    0.4886    2.2558 H   0  0  0  0  0  0  0  0  0  0  0  0
    5.9443    0.5077    0.7099 H   0  0  0  0  0  0  0  0  0  0  0  0
    3.0065    1.2428    1.0923 H   0  0  0  0  0  0  0  0  0  0  0  0
    4.3407    2.3943    0.8430 H   0  0  0  0  0  0  0  0  0  0  0  0
    3.8885    1.2618   -0.4537 H   0  0  0  0  0  0  0  0  0  0  0  0
    9.1886   -7.6577    0.5778 H   0  0  0  0  0  0  0  0  0  0  0  0
    7.5166   -7.0377    0.5460 H   0  0  0  0  0  0  0  0  0  0  0  0
    8.6763   -6.8691   -1.6868 H   0  0  0  0  0  0  0  0  0  0  0  0
    8.1487   -5.2924   -1.0508 H   0  0  0  0  0  0  0  0  0  0  0  0
   11.4154   -4.1604   -0.0744 H   0  0  0  0  0  0  0  0  0  0  0  0
    9.6780   -3.7801   -0.1505 H   0  0  0  0  0  0  0  0  0  0  0  0
   10.2617   -4.3124    2.1590 H   0  0  0  0  0  0  0  0  0  0  0  0
   11.0112   -5.8483    1.6487 H   0  0  0  0  0  0  0  0  0  0  0  0
    9.8207   -4.3105   -2.5317 H   0  0  0  0  0  0  0  0  0  0  0  0
   11.5303   -4.7692   -2.3447 H   0  0  0  0  0  0  0  0  0  0  0  0
   10.3680   -5.9284   -3.0327 H   0  0  0  0  0  0  0  0  0  0  0  0
   10.8473   -6.4035   -0.7491 H   0  0  0  0  0  0  0  0  0  0  0  0
  1  2  1  0  0  0  0
  1 34  1  0  0  0  0
  1 35  1  0  0  0  0
  1 36  1  0  0  0  0
  2  3  1  0  0  0  0
  2 37  1  0  0  0  0
  2 38  1  0  0  0  0
  3  4  1  0  0  0  0
  3 39  1  0  0  0  0
  3 40  1  0  0  0  0
  4 12  1  0  0  0  0
  4  5  2  0  0  0  0
  5 10  1  0  0  0  0
  5  6  1  0  0  0  0
  6  7  2  0  0  0  0
  7  8  1  0  0  0  0
  7 15  1  0  0  0  0
  8  9  2  0  0  0  0
  9 10  1  0  0  0  0
  9 14  1  0  0  0  0
 10 11  1  0  0  0  0
 11 12  2  0  0  0  0
 11 13  1  0  0  0  0
 13 41  1  0  0  0  0
 13 42  1  0  0  0  0
 13 43  1  0  0  0  0
 15 20  2  0  0  0  0
 15 16  1  0  0  0  0
 16 17  2  0  0  0  0
 16 44  1  0  0  0  0
 17 18  1  0  0  0  0
 17 24  1  0  0  0  0
 18 19  2  0  0  0  0
 18 45  1  0  0  0  0
 19 20  1  0  0  0  0
 19 46  1  0  0  0  0
 20 21  1  0  0  0  0
 21 22  1  0  0  0  0
 22 23  1  0  0  0  0
 22 47  1  0  0  0  0
 22 48  1  0  0  0  0
 23 49  1  0  0  0  0
 23 50  1  0  0  0  0
 23 51  1  0  0  0  0
 24 25  2  0  0  0  0
 24 26  2  0  0  0  0
 24 27  1  0  0  0  0
 27 32  1  0  0  0  0
 27 28  1  0  0  0  0
 28 29  1  0  0  0  0
 28 52  1  0  0  0  0
 28 53  1  0  0  0  0
 29 30  1  0  0  0  0
 29 54  1  0  0  0  0
 29 55  1  0  0  0  0
 30 31  1  0  0  0  0
 30 33  1  0  0  0  0
 30 63  1  0  0  0  0
 31 32  1  0  0  0  0
 31 56  1  0  0  0  0
 31 57  1  0  0  0  0
 32 58  1  0  0  0  0
 32 59  1  0  0  0  0
 33 60  1  0  0  0  0
 33 61  1  0  0  0  0
 33 62  1  0  0  0  0
M  CHG  2  14  -1  30   1
M  END
$$$$
CHEMBL183877
  -OEChem-07121202283D

 63 66  0     0  0  0  0  0  0999 V2000
   -0.0187    1.5258    0.0104 C   0  0  0  0  0  0  0  0  0  0  0  0
    0.0021   -0.0041    0.0020 C   0  0  0  0  0  0  0  0  0  0  0  0
    0.7182   -0.4975   -1.2568 C   0  0  0  0  0  0  0  0  0  0  0  0
    0.7386   -2.0043   -1.2651 C   0  0  0  0  0  0  0  0  0  0  0  0
    1.6979   -2.7872   -0.7275 C   0  0  0  0  0  0  0  0  0  0  0  0
    2.8823   -2.5357   -0.0472 N   0  0  0  0  0  0  0  0  0  0  0  0
    3.6386   -3.5952    0.3712 C   0  0  0  0  0  0  0  0  0  0  0  0
    3.2459   -4.8338    0.1299 N   0  0  0  0  0  0  0  0  0  0  0  0
    2.1099   -5.0934   -0.5229 C   0  0  0  0  0  0  0  0  0  0  0  0
    1.3240   -4.0931   -0.9584 N   0  0  0  0  0  0  0  0  0  0  0  0
    0.1423   -4.0515   -1.6329 C   0  0  0  0  0  0  0  0  0  0  0  0
   -0.1970   -2.8028   -1.8033 N   0  0  0  0  0  0  0  0  0  0  0  0
   -0.6458   -5.2481   -2.0998 C   0  0  0  0  0  0  0  0  0  0  0  0
    1.7824   -6.2485   -0.7258 O   0  0  0  0  0  0  0  0  0  0  0  0
    4.8994   -3.3545    1.0951 C   0  0  0  0  0  0  0  0  0  0  0  0
    5.3200   -2.0478    1.3594 C   0  0  0  0  0  0  0  0  0  0  0  0
    6.4998   -1.8299    2.0366 C   0  0  0  0  0  0  0  0  0  0  0  0
    7.2725   -2.9003    2.4575 C   0  0  0  0  0  0  0  0  0  0  0  0
    6.8691   -4.1961    2.2032 C   0  0  0  0  0  0  0  0  0  0  0  0
    5.6816   -4.4349    1.5280 C   0  0  0  0  0  0  0  0  0  0  0  0
    5.2811   -5.7076    1.2828 O   0  0  0  0  0  0  0  0  0  0  0  0
    6.1293   -6.7568    1.7538 C   0  0  0  0  0  0  0  0  0  0  0  0
    5.5178   -8.1105    1.3871 C   0  0  0  0  0  0  0  0  0  0  0  0
    7.0289   -0.1823    2.3685 S   0  0  0  0  0  0  0  0  0  0  0  0
    8.4388   -0.2349    2.5378 O   0  0  0  0  0  0  0  0  0  0  0  0
    6.4089    0.6472    1.3955 O   0  0  0  0  0  0  0  0  0  0  0  0
    6.3920    0.2505    3.8345 N   0  0  0  0  0  0  0  0  0  0  0  0
    5.0703    0.8894    3.9244 C   0  0  0  0  0  0  0  0  0  0  0  0
    4.2280    0.1231    4.9499 C   0  0  0  0  0  0  0  0  0  0  0  0
    4.9643    0.0382    6.2182 N   0  0  0  0  0  0  0  0  0  0  0  0
    6.2096   -0.7251    6.0612 C   0  0  0  0  0  0  0  0  0  0  0  0
    7.1305    0.0008    5.0818 C   0  0  0  0  0  0  0  0  0  0  0  0
    4.1243   -0.5370    7.2771 C   0  0  0  0  0  0  0  0  0  0  0  0
    1.0039    1.9031    0.0027 H   0  0  0  0  0  0  0  0  0  0  0  0
   -0.5459    1.8868   -0.8726 H   0  0  0  0  0  0  0  0  0  0  0  0
   -0.5289    1.8773    0.9072 H   0  0  0  0  0  0  0  0  0  0  0  0
    0.5293   -0.3651    0.8851 H   0  0  0  0  0  0  0  0  0  0  0  0
   -1.0205   -0.3814    0.0098 H   0  0  0  0  0  0  0  0  0  0  0  0
    0.1910   -0.1364   -2.1398 H   0  0  0  0  0  0  0  0  0  0  0  0
    1.7408   -0.1202   -1.2645 H   0  0  0  0  0  0  0  0  0  0  0  0
   -1.3455   -5.5491   -1.3201 H   0  0  0  0  0  0  0  0  0  0  0  0
   -1.1979   -4.9895   -3.0034 H   0  0  0  0  0  0  0  0  0  0  0  0
    0.0359   -6.0713   -2.3137 H   0  0  0  0  0  0  0  0  0  0  0  0
    4.7212   -1.2104    1.0329 H   0  0  0  0  0  0  0  0  0  0  0  0
    8.1961   -2.7199    2.9874 H   0  0  0  0  0  0  0  0  0  0  0  0
    7.4772   -5.0250    2.5344 H   0  0  0  0  0  0  0  0  0  0  0  0
    7.1120   -6.6648    1.2914 H   0  0  0  0  0  0  0  0  0  0  0  0
    6.2292   -6.6847    2.8368 H   0  0  0  0  0  0  0  0  0  0  0  0
    6.1647   -8.9107    1.7463 H   0  0  0  0  0  0  0  0  0  0  0  0
    4.5350   -8.2025    1.8495 H   0  0  0  0  0  0  0  0  0  0  0  0
    5.4179   -8.1826    0.3040 H   0  0  0  0  0  0  0  0  0  0  0  0
    5.1851    1.9248    4.2452 H   0  0  0  0  0  0  0  0  0  0  0  0
    4.5809    0.8568    2.9510 H   0  0  0  0  0  0  0  0  0  0  0  0
    3.2857    0.6469    5.1108 H   0  0  0  0  0  0  0  0  0  0  0  0
    4.0273   -0.8815    4.5778 H   0  0  0  0  0  0  0  0  0  0  0  0
    6.7045   -0.8165    7.0281 H   0  0  0  0  0  0  0  0  0  0  0  0
    5.9813   -1.7180    5.6737 H   0  0  0  0  0  0  0  0  0  0  0  0
    8.0025   -0.6189    4.8732 H   0  0  0  0  0  0  0  0  0  0  0  0
    7.4471    0.9492    5.5159 H   0  0  0  0  0  0  0  0  0  0  0  0
    3.8103   -1.5398    6.9875 H   0  0  0  0  0  0  0  0  0  0  0  0
    4.6939   -0.5884    8.2051 H   0  0  0  0  0  0  0  0  0  0  0  0
    3.2453    0.0905    7.4247 H   0  0  0  0  0  0  0  0  0  0  0  0
    3.1678   -1.6253    0.1277 H   0  0  0  0  0  0  0  0  0  0  0  0
  1  2  1  0  0  0  0
  1 34  1  0  0  0  0
  1 35  1  0  0  0  0
  1 36  1  0  0  0  0
  2  3  1  0  0  0  0
  2 37  1  0  0  0  0
  2 38  1  0  0  0  0
  3  4  1  0  0  0  0
  3 39  1  0  0  0  0
  3 40  1  0  0  0  0
  4 12  1  0  0  0  0
  4  5  2  0  0  0  0
  5 10  1  0  0  0  0
  5  6  1  0  0  0  0
  6  7  1  0  0  0  0
  6 63  1  0  0  0  0
  7  8  2  0  0  0  0
  7 15  1  0  0  0  0
  8  9  1  0  0  0  0
  9 10  1  0  0  0  0
  9 14  2  0  0  0  0
 10 11  1  0  0  0  0
 11 12  2  0  0  0  0
 11 13  1  0  0  0  0
 13 41  1  0  0  0  0
 13 42  1  0  0  0  0
 13 43  1  0  0  0  0
 15 20  2  0  0  0  0
 15 16  1  0  0  0  0
 16 17  2  0  0  0  0
 16 44  1  0  0  0  0
 17 18  1  0  0  0  0
 17 24  1  0  0  0  0
 18 19  2  0  0  0  0
 18 45  1  0  0  0  0
 19 20  1  0  0  0  0
 19 46  1  0  0  0  0
 20 21  1  0  0  0  0
 21 22  1  0  0  0  0
 22 23  1  0  0  0  0
 22 47  1  0  0  0  0
 22 48  1  0  0  0  0
 23 49  1  0  0  0  0
 23 50  1  0  0  0  0
 23 51  1  0  0  0  0
 24 25  2  0  0  0  0
 24 26  2  0  0  0  0
 24 27  1  0  0  0  0
 27 32  1  0  0  0  0
 27 28  1  0  0  0  0
 28 29  1  0  0  0  0
 28 52  1  0  0  0  0
 28 53  1  0  0  0  0
 29 30  1  0  0  0  0
 29 54  1  0  0  0  0
 29 55  1  0  0  0  0
 30 31  1  0  0  0  0
 30 33  1  0  0  0  0
 31 32  1  0  0  0  0
 31 56  1  0  0  0  0
 31 57  1  0  0  0  0
 32 58  1  0  0  0  0
 32 59  1  0  0  0  0
 33 60  1  0  0  0  0
 33 61  1  0  0  0  0
 33 62  1  0  0  0  0
M  END
$$$$
CHEMBL188211
  -OEChem-07121202283D

 47 49  0     0  0  0  0  0  0999 V2000
   -0.0169    1.3770    0.0815 C   0  0  0  0  0  0  0  0  0  0  0  0
    1.1694    2.0870    0.0711 C   0  0  0  0  0  0  0  0  0  0  0  0
    2.3770    1.4165    0.0454 C   0  0  0  0  0  0  0  0  0  0  0  0
    2.3986    0.0294    0.0305 C   0  0  0  0  0  0  0  0  0  0  0  0
    1.2069   -0.6808    0.0414 C   0  0  0  0  0  0  0  0  0  0  0  0
    0.0020   -0.0055    0.0666 C   0  0  0  0  0  0  0  0  0  0  0  0
    3.5852   -0.6326    0.0048 O   0  0  0  0  0  0  0  0  0  0  0  0
    3.5313   -2.0605   -0.0094 C   0  0  0  0  0  0  0  0  0  0  0  0
    4.9320   -2.6158   -0.0374 C   0  0  0  0  0  0  0  0  0  0  0  0
    6.0118   -1.7469   -0.0396 C   0  0  0  0  0  0  0  0  0  0  0  0
    7.2982   -2.2620   -0.0649 C   0  0  0  0  0  0  0  0  0  0  0  0
    7.4589   -3.6387   -0.0873 C   0  0  0  0  0  0  0  0  0  0  0  0
    6.3282   -4.4520   -0.0836 C   0  0  0  0  0  0  0  0  0  0  0  0
    5.1130   -3.9181   -0.0539 N   0  0  0  0  0  0  0  0  0  0  0  0
    6.4829   -5.9250   -0.1078 C   0  0  0  0  0  0  0  0  0  0  0  0
    7.5929   -6.4191   -0.1308 O   0  0  0  0  0  0  0  0  0  0  0  0
    5.3926   -6.7172   -0.1044 N   0  0  0  0  0  0  0  0  0  0  0  0
    5.5349   -8.1031   -0.2247 C   0  0  0  0  0  0  0  0  0  0  0  0
    4.5897   -8.8417   -0.9253 C   0  0  0  0  0  0  0  0  0  0  0  0
    4.7332  -10.2101   -1.0422 C   0  0  0  0  0  0  0  0  0  0  0  0
    5.8163  -10.8454   -0.4623 C   0  0  0  0  0  0  0  0  0  0  0  0
    6.7586  -10.1132    0.2361 C   0  0  0  0  0  0  0  0  0  0  0  0
    6.6245   -8.7433    0.3511 C   0  0  0  0  0  0  0  0  0  0  0  0
    7.9368  -10.8098    0.8667 C   0  0  0  0  0  0  0  0  0  0  0  0
    9.0758  -10.8620   -0.1187 C   0  0  0  0  0  0  0  0  0  0  0  0
    8.9439  -10.3810   -1.2242 O   0  0  0  0  0  0  0  0  0  0  0  0
   10.2412  -11.4433    0.2286 N   0  0  0  0  0  0  0  0  0  0  0  0
   11.3114  -11.4924   -0.6973 O   0  0  0  0  0  0  0  0  0  0  0  0
   -0.9598    1.9030    0.1058 H   0  0  0  0  0  0  0  0  0  0  0  0
    1.1521    3.1668    0.0828 H   0  0  0  0  0  0  0  0  0  0  0  0
    3.3033    1.9716    0.0366 H   0  0  0  0  0  0  0  0  0  0  0  0
    1.2211   -1.7606    0.0295 H   0  0  0  0  0  0  0  0  0  0  0  0
   -0.9260   -0.5579    0.0751 H   0  0  0  0  0  0  0  0  0  0  0  0
    3.0183   -2.4136    0.8852 H   0  0  0  0  0  0  0  0  0  0  0  0
    2.9901   -2.3949   -0.8945 H   0  0  0  0  0  0  0  0  0  0  0  0
    5.8523   -0.6789   -0.0221 H   0  0  0  0  0  0  0  0  0  0  0  0
    8.1559   -1.6057   -0.0675 H   0  0  0  0  0  0  0  0  0  0  0  0
    8.4469   -4.0744   -0.1077 H   0  0  0  0  0  0  0  0  0  0  0  0
    4.5091   -6.3261   -0.0184 H   0  0  0  0  0  0  0  0  0  0  0  0
    3.7434   -8.3463   -1.3777 H   0  0  0  0  0  0  0  0  0  0  0  0
    3.9988  -10.7849   -1.5867 H   0  0  0  0  0  0  0  0  0  0  0  0
    5.9260  -11.9158   -0.5549 H   0  0  0  0  0  0  0  0  0  0  0  0
    7.3634   -8.1713    0.8926 H   0  0  0  0  0  0  0  0  0  0  0  0
    8.2500  -10.2616    1.7553 H   0  0  0  0  0  0  0  0  0  0  0  0
    7.6520  -11.8239    1.1469 H   0  0  0  0  0  0  0  0  0  0  0  0
   10.3468  -11.8280    1.1127 H   0  0  0  0  0  0  0  0  0  0  0  0
   12.1052  -11.9282   -0.3582 H   0  0  0  0  0  0  0  0  0  0  0  0
  1  6  2  0  0  0  0
  1  2  1  0  0  0  0
  1 29  1  0  0  0  0
  2  3  2  0  0  0  0
  2 30  1  0  0  0  0
  3  4  1  0  0  0  0
  3 31  1  0  0  0  0
  4  5  2  0  0  0  0
  4  7  1  0  0  0  0
  5  6  1  0  0  0  0
  5 32  1  0  0  0  0
  6 33  1  0  0  0  0
  7  8  1  0  0  0  0
  8  9  1  0  0  0  0
  8 34  1  0  0  0  0
  8 35  1  0  0  0  0
  9 14  2  0  0  0  0
  9 10  1  0  0  0  0
 10 11  2  0  0  0  0
 10 36  1  0  0  0  0
 11 12  1  0  0  0  0
 11 37  1  0  0  0  0
 12 13  2  0  0  0  0
 12 38  1  0  0  0  0
 13 14  1  0  0  0  0
 13 15  1  0  0  0  0
 15 16  2  0  0  0  0
 15 17  1  0  0  0  0
 17 18  1  0  0  0  0
 17 39  1  0  0  0  0
 18 23  2  0  0  0  0
 18 19  1  0  0  0  0
 19 20  2  0  0  0  0
 19 40  1  0  0  0  0
 20 21  1  0  0  0  0
 20 41  1  0  0  0  0
 21 22  2  0  0  0  0
 21 42  1  0  0  0  0
 22 23  1  0  0  0  0
 22 24  1  0  0  0  0
 23 43  1  0  0  0  0
 24 25  1  0  0  0  0
 24 44  1  0  0  0  0
 24 45  1  0  0  0  0
 25 26  2  0  0  0  0
 25 27  1  0  0  0  0
 27 28  1  0  0  0  0
 27 46  1  0  0  0  0
 28 47  1  0  0  0  0
M  END
$$$$
CHEMBL117108
  -OEChem-07121202283D

 38 41  0     0  0  0  0  0  0999 V2000
   -0.0167    1.3781    0.0096 C   0  0  0  0  0  0  0  0  0  0  0  0
    1.1709    2.0855    0.0021 C   0  0  0  0  0  0  0  0  0  0  0  0
    2.3773    1.4107   -0.0130 C   0  0  0  0  0  0  0  0  0  0  0  0
    2.3960    0.0285   -0.0201 C   0  0  0  0  0  0  0  0  0  0  0  0
    1.2084   -0.6789   -0.0117 C   0  0  0  0  0  0  0  0  0  0  0  0
    0.0021   -0.0041    0.0020 C   0  0  0  0  0  0  0  0  0  0  0  0
    3.7112   -0.7071   -0.0376 C   0  0  0  0  0  0  0  0  0  0  0  0
    4.1518   -0.9524    1.3379 N   0  0  0  0  0  0  0  0  0  0  0  0
    5.3374   -1.6154    1.5741 C   0  0  0  0  0  0  0  0  0  0  0  0
    5.7777   -1.8673    2.8986 C   0  0  0  0  0  0  0  0  0  0  0  0
    5.0395   -1.4605    4.0145 C   0  0  0  0  0  0  0  0  0  0  0  0
    5.5098   -1.7293    5.2668 C   0  0  0  0  0  0  0  0  0  0  0  0
    6.7142   -2.4029    5.4489 C   0  0  0  0  0  0  0  0  0  0  0  0
    7.4579   -2.8126    4.3823 C   0  0  0  0  0  0  0  0  0  0  0  0
    7.0038   -2.5532    3.0812 C   0  0  0  0  0  0  0  0  0  0  0  0
    7.6973   -2.9358    2.0005 N   0  0  0  0  0  0  0  0  0  0  0  0
    7.2417   -2.6758    0.7861 C   0  0  0  0  0  0  0  0  0  0  0  0
    6.0901   -2.0373    0.5705 N   0  0  0  0  0  0  0  0  0  0  0  0
    8.0362   -3.1140   -0.3765 C   0  0  0  0  0  0  0  0  0  0  0  0
    9.2306   -3.7871   -0.4026 C   0  0  0  0  0  0  0  0  0  0  0  0
    9.7908   -4.0927   -1.6208 C   0  0  0  0  0  0  0  0  0  0  0  0
    9.1466   -3.7201   -2.7586 C   0  0  0  0  0  0  0  0  0  0  0  0
    7.6895   -2.9131   -2.1164 S   0  0  0  0  0  0  0  0  0  0  0  0
   -0.9591    1.9053    0.0259 H   0  0  0  0  0  0  0  0  0  0  0  0
    1.1563    3.1654    0.0076 H   0  0  0  0  0  0  0  0  0  0  0  0
    3.3051    1.9634   -0.0196 H   0  0  0  0  0  0  0  0  0  0  0  0
    1.2231   -1.7588   -0.0176 H   0  0  0  0  0  0  0  0  0  0  0  0
   -0.9258   -0.5567    0.0082 H   0  0  0  0  0  0  0  0  0  0  0  0
    3.5884   -1.6586   -0.5549 H   0  0  0  0  0  0  0  0  0  0  0  0
    4.4573   -0.1052   -0.5563 H   0  0  0  0  0  0  0  0  0  0  0  0
    3.6095   -0.6484    2.0824 H   0  0  0  0  0  0  0  0  0  0  0  0
    4.1038   -0.9368    3.8859 H   0  0  0  0  0  0  0  0  0  0  0  0
    4.9399   -1.4149    6.1286 H   0  0  0  0  0  0  0  0  0  0  0  0
    7.0650   -2.6038    6.4504 H   0  0  0  0  0  0  0  0  0  0  0  0
    8.3909   -3.3336    4.5385 H   0  0  0  0  0  0  0  0  0  0  0  0
    9.7222   -4.0715    0.5160 H   0  0  0  0  0  0  0  0  0  0  0  0
   10.7309   -4.6218   -1.6730 H   0  0  0  0  0  0  0  0  0  0  0  0
    9.4392   -3.8758   -3.7865 H   0  0  0  0  0  0  0  0  0  0  0  0
  1  6  2  0  0  0  0
  1  2  1  0  0  0  0
  1 24  1  0  0  0  0
  2  3  2  0  0  0  0
  2 25  1  0  0  0  0
  3  4  1  0  0  0  0
  3 26  1  0  0  0  0
  4  5  2  0  0  0  0
  4  7  1  0  0  0  0
  5  6  1  0  0  0  0
  5 27  1  0  0  0  0
  6 28  1  0  0  0  0
  7  8  1  0  0  0  0
  7 29  1  0  0  0  0
  7 30  1  0  0  0  0
  8  9  1  0  0  0  0
  8 31  1  0  0  0  0
  9 18  2  0  0  0  0
  9 10  1  0  0  0  0
 10 15  2  0  0  0  0
 10 11  1  0  0  0  0
 11 12  2  0  0  0  0
 11 32  1  0  0  0  0
 12 13  1  0  0  0  0
 12 33  1  0  0  0  0
 13 14  2  0  0  0  0
 13 34  1  0  0  0  0
 14 15  1  0  0  0  0
 14 35  1  0  0  0  0
 15 16  1  0  0  0  0
 16 17  2  0  0  0  0
 17 18  1  0  0  0  0
 17 19  1  0  0  0  0
 19 23  1  0  0  0  0
 19 20  2  0  0  0  0
 20 21  1  0  0  0  0
 20 36  1  0  0  0  0
 21 22  2  0  0  0  0
 21 37  1  0  0  0  0
 22 23  1  0  0  0  0
 22 38  1  0  0  0  0
M  END
$$$$
CHEMBL554946
  -OEChem-07121202283D

 44 47  0     0  0  0  0  0  0999 V2000
   -0.0164    1.3599    0.0095 C   0  0  0  0  0  0  0  0  0  0  0  0
    1.1681    2.0909    0.0021 C   0  0  0  0  0  0  0  0  0  0  0  0
    2.3794    1.4656   -0.0127 C   0  0  0  0  0  0  0  0  0  0  0  0
    2.4352    0.0650   -0.0207 C   0  0  0  0  0  0  0  0  0  0  0  0
    1.2287   -0.6768   -0.0132 C   0  0  0  0  0  0  0  0  0  0  0  0
    0.0021   -0.0041    0.0020 C   0  0  0  0  0  0  0  0  0  0  0  0
    1.3104   -2.0913   -0.0210 C   0  0  0  0  0  0  0  0  0  0  0  0
    2.5118   -2.6506   -0.0350 N   0  0  0  0  0  0  0  0  0  0  0  0
    3.6184   -1.9156   -0.0417 C   0  0  0  0  0  0  0  0  0  0  0  0
    3.6005   -0.5982   -0.0349 N   0  0  0  0  0  0  0  0  0  0  0  0
    4.8513   -2.5660   -0.0564 N   0  0  0  0  0  0  0  0  0  0  0  0
    6.0882   -1.9710   -0.0595 C   0  0  0  0  0  0  0  0  0  0  0  0
    6.9975   -2.9631   -0.0752 C   0  0  0  0  0  0  0  0  0  0  0  0
    6.3418   -4.1337   -0.0816 N   0  0  0  0  0  0  0  0  0  0  0  0
    5.0567   -3.9105   -0.0645 C   0  0  0  0  0  0  0  0  0  0  0  0
    0.1700   -2.8656   -0.0138 N   0  0  0  0  0  0  0  0  0  0  0  0
    0.2765   -4.3267   -0.0221 C   0  0  0  0  0  0  0  0  0  0  0  0
   -1.1250   -4.9403   -0.0115 C   0  0  0  0  0  0  0  0  0  0  0  0
   -1.8240   -4.5929    1.3044 C   0  0  0  0  0  0  0  0  0  0  0  0
   -3.2255   -5.2065    1.3149 C   0  0  0  0  0  0  0  0  0  0  0  0
   -3.1176   -6.7267    1.1806 C   0  0  0  0  0  0  0  0  0  0  0  0
   -2.4187   -7.0742   -0.1353 C   0  0  0  0  0  0  0  0  0  0  0  0
   -1.0172   -6.4605   -0.1459 C   0  0  0  0  0  0  0  0  0  0  0  0
   -0.9630    1.8796    0.0259 H   0  0  0  0  0  0  0  0  0  0  0  0
    1.1269    3.1701    0.0079 H   0  0  0  0  0  0  0  0  0  0  0  0
    3.2903    2.0457   -0.0187 H   0  0  0  0  0  0  0  0  0  0  0  0
   -0.9235   -0.5606    0.0082 H   0  0  0  0  0  0  0  0  0  0  0  0
    6.2926   -0.9106   -0.0512 H   0  0  0  0  0  0  0  0  0  0  0  0
    8.0702   -2.8384   -0.0820 H   0  0  0  0  0  0  0  0  0  0  0  0
    4.2853   -4.6664   -0.0604 H   0  0  0  0  0  0  0  0  0  0  0  0
   -0.7031   -2.4430   -0.0032 H   0  0  0  0  0  0  0  0  0  0  0  0
    0.8068   -4.6472   -0.9188 H   0  0  0  0  0  0  0  0  0  0  0  0
    0.8240   -4.6561    0.8610 H   0  0  0  0  0  0  0  0  0  0  0  0
   -1.7024   -4.5419   -0.8458 H   0  0  0  0  0  0  0  0  0  0  0  0
   -1.2466   -4.9913    2.1387 H   0  0  0  0  0  0  0  0  0  0  0  0
   -1.9008   -3.5098    1.4001 H   0  0  0  0  0  0  0  0  0  0  0  0
   -3.7234   -4.9590    2.2524 H   0  0  0  0  0  0  0  0  0  0  0  0
   -3.8028   -4.8081    0.4807 H   0  0  0  0  0  0  0  0  0  0  0  0
   -2.5403   -7.1252    2.0149 H   0  0  0  0  0  0  0  0  0  0  0  0
   -4.1161   -7.1639    1.1881 H   0  0  0  0  0  0  0  0  0  0  0  0
   -2.3419   -8.1572   -0.2310 H   0  0  0  0  0  0  0  0  0  0  0  0
   -2.9960   -6.6757   -0.9696 H   0  0  0  0  0  0  0  0  0  0  0  0
   -0.5192   -6.7081   -1.0833 H   0  0  0  0  0  0  0  0  0  0  0  0
   -0.4398   -6.8590    0.6884 H   0  0  0  0  0  0  0  0  0  0  0  0
  1  6  2  0  0  0  0
  1  2  1  0  0  0  0
  1 24  1  0  0  0  0
  2  3  2  0  0  0  0
  2 25  1  0  0  0  0
  3  4  1  0  0  0  0
  3 26  1  0  0  0  0
  4 10  2  0  0  0  0
  4  5  1  0  0  0  0
  5  6  1  0  0  0  0
  5  7  2  0  0  0  0
  6 27  1  0  0  0  0
  7  8  1  0  0  0  0
  7 16  1  0  0  0  0
  8  9  2  0  0  0  0
  9 10  1  0  0  0  0
  9 11  1  0  0  0  0
 11 15  1  0  0  0  0
 11 12  1  0  0  0  0
 12 13  2  0  0  0  0
 12 28  1  0  0  0  0
 13 14  1  0  0  0  0
 13 29  1  0  0  0  0
 14 15  2  0  0  0  0
 15 30  1  0  0  0  0
 16 17  1  0  0  0  0
 16 31  1  0  0  0  0
 17 18  1  0  0  0  0
 17 32  1  0  0  0  0
 17 33  1  0  0  0  0
 18 23  1  0  0  0  0
 18 19  1  0  0  0  0
 18 34  1  0  0  0  0
 19 20  1  0  0  0  0
 19 35  1  0  0  0  0
 19 36  1  0  0  0  0
 20 21  1  0  0  0  0
 20 37  1  0  0  0  0
 20 38  1  0  0  0  0
 21 22  1  0  0  0  0
 21 39  1  0  0  0  0
 21 40  1  0  0  0  0
 22 23  1  0  0  0  0
 22 41  1  0  0  0  0
 22 42  1  0  0  0  0
 23 43  1  0  0  0  0
 23 44  1  0  0  0  0
M  END
$$$$
CHEMBL245517
  -OEChem-07121202283D

 76 79  0     1  0  0  0  0  0999 V2000
   -0.0187    1.5258    0.0104 C   0  0  0  0  0  0  0  0  0  0  0  0
    0.0021   -0.0041    0.0020 C   0  0  0  0  0  0  0  0  0  0  0  0
   -1.4333   -0.5336    0.0129 C   0  0  0  0  0  0  0  0  0  0  0  0
   -1.4129   -2.0405    0.0046 C   0  0  0  0  0  0  0  0  0  0  0  0
   -1.4070   -2.8548   -1.1446 C   0  0  0  0  0  0  0  0  0  0  0  0
   -1.3861   -4.1841   -0.7032 C   0  0  0  0  0  0  0  0  0  0  0  0
   -1.3769   -5.2214   -1.6643 C   0  0  0  0  0  0  0  0  0  0  0  0
   -1.3591   -6.3907   -1.3206 O   0  0  0  0  0  0  0  0  0  0  0  0
   -1.3887   -4.8848   -2.9731 N   0  0  0  0  0  0  0  0  0  0  0  0
   -1.3827   -5.5793   -3.6502 H   0  0  0  0  0  0  0  0  0  0  0  0
   -1.4095   -3.5686   -3.3476 C   0  0  0  0  0  0  0  0  0  0  0  0
   -1.4171   -2.5966   -2.4679 N   0  0  0  0  0  0  0  0  0  0  0  0
   -1.4219   -3.2333   -4.7854 C   0  0  0  0  0  0  0  0  0  0  0  0
   -1.4183   -4.2493   -5.7432 C   0  0  0  0  0  0  0  0  0  0  0  0
   -1.4299   -3.9298   -7.0842 C   0  0  0  0  0  0  0  0  0  0  0  0
   -1.4448   -2.6046   -7.4863 C   0  0  0  0  0  0  0  0  0  0  0  0
   -1.4485   -1.5903   -6.5488 C   0  0  0  0  0  0  0  0  0  0  0  0
   -1.4433   -1.8942   -5.1961 C   0  0  0  0  0  0  0  0  0  0  0  0
   -1.4527   -0.8984   -4.2738 O   0  0  0  0  0  0  0  0  0  0  0  0
   -1.4745    0.4426   -4.7671 C   0  0  0  0  0  0  0  0  0  0  0  0
   -1.4823    1.4191   -3.5893 C   0  0  0  0  0  0  0  0  0  0  0  0
   -1.5057    2.8549   -4.1174 C   0  0  0  0  0  0  0  0  0  0  0  0
   -1.4253   -5.2129   -8.2917 S   0  0  0  0  0  0  0  0  0  0  0  0
   -0.8874   -4.6500   -9.4805 O   0  0  0  0  0  0  0  0  0  0  0  0
   -0.8594   -6.3568   -7.6667 O   0  0  0  0  0  0  0  0  0  0  0  0
   -3.0059   -5.5847   -8.6172 N   0  0  0  0  0  0  0  0  0  0  0  0
   -3.7140   -6.6149   -7.8423 C   0  0  0  0  0  0  0  0  0  0  0  0
   -5.0367   -6.0245   -7.3421 C   0  0  0  0  0  0  0  0  0  0  0  0
   -5.7871   -5.4782   -8.4807 N   0  0  0  0  0  0  0  0  0  0  0  0
   -5.0604   -4.3708   -9.1159 C   0  0  0  0  0  0  0  0  0  0  0  0
   -3.7406   -4.8891   -9.6847 C   0  0  0  0  0  0  0  0  0  0  0  0
   -7.1336   -5.0579   -8.0708 C   0  0  0  0  0  0  0  0  0  0  0  0
   -8.2482   -5.0984   -9.5128 P   0  0  1  0  0  0  0  0  0  0  0  0
   -7.6528   -4.2364  -10.6483 O   0  0  0  0  0  0  0  0  0  0  0  0
   -8.4059   -6.5557  -10.0010 O   0  5  0  0  0  0  0  0  0  0  0  0
   -9.6888   -4.5138   -9.0942 O   0  0  0  0  0  0  0  0  0  0  0  0
  -10.7505   -4.3166  -10.0301 C   0  0  0  0  0  0  0  0  0  0  0  0
  -11.9724   -3.7510   -9.3035 C   0  0  0  0  0  0  0  0  0  0  0  0
   -1.3799   -4.1501    0.6637 N   0  0  0  0  0  0  0  0  0  0  0  0
   -1.3920   -2.8068    1.0614 N   0  0  0  0  0  0  0  0  0  0  0  0
   -1.3598   -5.3128    1.5547 C   0  0  0  0  0  0  0  0  0  0  0  0
    1.0039    1.9031    0.0027 H   0  0  0  0  0  0  0  0  0  0  0  0
   -0.5459    1.8868   -0.8726 H   0  0  0  0  0  0  0  0  0  0  0  0
   -0.5289    1.8773    0.9072 H   0  0  0  0  0  0  0  0  0  0  0  0
    0.5123   -0.3556   -0.8948 H   0  0  0  0  0  0  0  0  0  0  0  0
    0.5293   -0.3651    0.8851 H   0  0  0  0  0  0  0  0  0  0  0  0
   -1.9435   -0.1821    0.9097 H   0  0  0  0  0  0  0  0  0  0  0  0
   -1.9605   -0.1726   -0.8702 H   0  0  0  0  0  0  0  0  0  0  0  0
   -1.4060   -5.2840   -5.4339 H   0  0  0  0  0  0  0  0  0  0  0  0
   -1.4531   -2.3629   -8.5389 H   0  0  0  0  0  0  0  0  0  0  0  0
   -1.4598   -0.5592   -6.8698 H   0  0  0  0  0  0  0  0  0  0  0  0
   -0.5902    0.6189   -5.3794 H   0  0  0  0  0  0  0  0  0  0  0  0
   -2.3699    0.5934   -5.3701 H   0  0  0  0  0  0  0  0  0  0  0  0
   -2.3667    1.2428   -2.9770 H   0  0  0  0  0  0  0  0  0  0  0  0
   -0.5869    1.2683   -2.9863 H   0  0  0  0  0  0  0  0  0  0  0  0
   -0.6213    3.0312   -4.7297 H   0  0  0  0  0  0  0  0  0  0  0  0
   -2.4011    3.0057   -4.7204 H   0  0  0  0  0  0  0  0  0  0  0  0
   -1.5112    3.5506   -3.2783 H   0  0  0  0  0  0  0  0  0  0  0  0
   -3.9151   -7.4774   -8.4778 H   0  0  0  0  0  0  0  0  0  0  0  0
   -3.1033   -6.9177   -6.9918 H   0  0  0  0  0  0  0  0  0  0  0  0
   -5.6245   -6.8057   -6.8602 H   0  0  0  0  0  0  0  0  0  0  0  0
   -4.8320   -5.2286   -6.6260 H   0  0  0  0  0  0  0  0  0  0  0  0
   -5.6655   -3.9526   -9.9203 H   0  0  0  0  0  0  0  0  0  0  0  0
   -4.8554   -3.5980   -8.3750 H   0  0  0  0  0  0  0  0  0  0  0  0
   -3.1474   -4.0515  -10.0517 H   0  0  0  0  0  0  0  0  0  0  0  0
   -3.9443   -5.5825  -10.5007 H   0  0  0  0  0  0  0  0  0  0  0  0
   -7.5078   -5.7353   -7.3032 H   0  0  0  0  0  0  0  0  0  0  0  0
   -7.0922   -4.0443   -7.6720 H   0  0  0  0  0  0  0  0  0  0  0  0
  -10.4298   -3.6161  -10.8011 H   0  0  0  0  0  0  0  0  0  0  0  0
  -11.0106   -5.2697  -10.4906 H   0  0  0  0  0  0  0  0  0  0  0  0
  -12.7822   -3.6006  -10.0173 H   0  0  0  0  0  0  0  0  0  0  0  0
  -12.2931   -4.4515   -8.5324 H   0  0  0  0  0  0  0  0  0  0  0  0
  -11.7123   -2.7979   -8.8429 H   0  0  0  0  0  0  0  0  0  0  0  0
   -0.3273   -5.5873    1.7707 H   0  0  0  0  0  0  0  0  0  0  0  0
   -1.8725   -5.0668    2.4846 H   0  0  0  0  0  0  0  0  0  0  0  0
   -1.8648   -6.1494    1.0718 H   0  0  0  0  0  0  0  0  0  0  0  0
  1  2  1  0  0  0  0
  1 42  1  0  0  0  0
  1 43  1  0  0  0  0
  1 44  1  0  0  0  0
  2  3  1  0  0  0  0
  2 45  1  0  0  0  0
  2 46  1  0  0  0  0
  3  4  1  0  0  0  0
  3 47  1  0  0  0  0
  3 48  1  0  0  0  0
  4 40  2  0  0  0  0
  4  5  1  0  0  0  0
  5 12  1  0  0  0  0
  5  6  2  0  0  0  0
  6  7  1  0  0  0  0
  6 39  1  0  0  0  0
  7  8  2  0  0  0  0
  7  9  1  0  0  0  0
  9 10  1  0  0  0  0
  9 11  1  0  0  0  0
 11 12  2  0  0  0  0
 11 13  1  0  0  0  0
 13 18  2  0  0  0  0
 13 14  1  0  0  0  0
 14 15  2  0  0  0  0
 14 49  1  0  0  0  0
 15 16  1  0  0  0  0
 15 23  1  0  0  0  0
 16 17  2  0  0  0  0
 16 50  1  0  0  0  0
 17 18  1  0  0  0  0
 17 51  1  0  0  0  0
 18 19  1  0  0  0  0
 19 20  1  0  0  0  0
 20 21  1  0  0  0  0
 20 52  1  0  0  0  0
 20 53  1  0  0  0  0
 21 22  1  0  0  0  0
 21 54  1  0  0  0  0
 21 55  1  0  0  0  0
 22 56  1  0  0  0  0
 22 57  1  0  0  0  0
 22 58  1  0  0  0  0
 23 24  2  0  0  0  0
 23 25  2  0  0  0  0
 23 26  1  0  0  0  0
 26 31  1  0  0  0  0
 26 27  1  0  0  0  0
 27 28  1  0  0  0  0
 27 59  1  0  0  0  0
 27 60  1  0  0  0  0
 28 29  1  0  0  0  0
 28 61  1  0  0  0  0
 28 62  1  0  0  0  0
 29 30  1  0  0  0  0
 29 32  1  0  0  0  0
 30 31  1  0  0  0  0
 30 63  1  0  0  0  0
 30 64  1  0  0  0  0
 31 65  1  0  0  0  0
 31 66  1  0  0  0  0
 32 33  1  0  0  0  0
 32 67  1  0  0  0  0
 32 68  1  0  0  0  0
 33 34  2  0  0  0  0
 33 35  1  0  0  0  0
 33 36  1  0  0  0  0
 36 37  1  0  0  0  0
 37 38  1  0  0  0  0
 37 69  1  0  0  0  0
 37 70  1  0  0  0  0
 38 71  1  0  0  0  0
 38 72  1  0  0  0  0
 38 73  1  0  0  0  0
 39 40  1  0  0  0  0
 39 41  1  0  0  0  0
 41 74  1  0  0  0  0
 41 75  1  0  0  0  0
 41 76  1  0  0  0  0
M  CHG  1  35  -1
M  END
$$$$
CHEMBL245517
  -OEChem-07121202283D

 76 79  0     1  0  0  0  0  0999 V2000
   -0.0187    1.5258    0.0104 C   0  0  0  0  0  0  0  0  0  0  0  0
    0.0021   -0.0041    0.0020 C   0  0  0  0  0  0  0  0  0  0  0  0
   -1.4333   -0.5336    0.0129 C   0  0  0  0  0  0  0  0  0  0  0  0
   -1.4129   -2.0405    0.0046 C   0  0  0  0  0  0  0  0  0  0  0  0
   -1.4071   -2.8493   -1.1371 C   0  0  0  0  0  0  0  0  0  0  0  0
   -1.3871   -4.1737   -0.7055 C   0  0  0  0  0  0  0  0  0  0  0  0
   -1.3778   -5.2332   -1.7158 C   0  0  0  0  0  0  0  0  0  0  0  0
   -1.3607   -6.4084   -1.3854 O   0  0  0  0  0  0  0  0  0  0  0  0
   -1.3888   -4.8868   -3.0129 N   0  0  0  0  0  0  0  0  0  0  0  0
   -1.4076   -3.6251   -3.3867 C   0  0  0  0  0  0  0  0  0  0  0  0
   -1.4171   -2.5975   -2.4964 N   0  0  0  0  0  0  0  0  0  0  0  0
   -1.4188   -3.3135   -4.8285 C   0  0  0  0  0  0  0  0  0  0  0  0
   -1.4330   -1.9848   -5.2600 C   0  0  0  0  0  0  0  0  0  0  0  0
   -1.4429   -1.7003   -6.6083 C   0  0  0  0  0  0  0  0  0  0  0  0
   -1.4394   -2.7264   -7.5391 C   0  0  0  0  0  0  0  0  0  0  0  0
   -1.4259   -4.0440   -7.1262 C   0  0  0  0  0  0  0  0  0  0  0  0
   -1.4095   -4.3485   -5.7734 C   0  0  0  0  0  0  0  0  0  0  0  0
   -1.3901   -5.6427   -5.3664 O   0  0  0  0  0  0  0  0  0  0  0  0
   -1.3816   -6.6435   -6.3863 C   0  0  0  0  0  0  0  0  0  0  0  0
   -1.3598   -8.0302   -5.7401 C   0  0  0  0  0  0  0  0  0  0  0  0
   -1.3507   -9.1017   -6.8321 C   0  0  0  0  0  0  0  0  0  0  0  0
   -1.4608   -0.0240   -7.1509 S   0  0  0  0  0  0  0  0  0  0  0  0
   -2.0188   -0.0261   -8.4578 O   0  0  0  0  0  0  0  0  0  0  0  0
   -2.0126    0.7410   -6.0882 O   0  0  0  0  0  0  0  0  0  0  0  0
    0.1161    0.4558   -7.3104 N   0  0  0  0  0  0  0  0  0  0  0  0
    0.8400    1.0577   -6.1804 C   0  0  0  0  0  0  0  0  0  0  0  0
    2.1678    0.3139   -6.0012 C   0  0  0  0  0  0  0  0  0  0  0  0
    2.8987    0.3093   -7.2754 N   0  0  0  0  0  0  0  0  0  0  0  0
    2.1581   -0.4223   -8.3119 C   0  0  0  0  0  0  0  0  0  0  0  0
    0.8318    0.2857   -8.5841 C   0  0  0  0  0  0  0  0  0  0  0  0
    4.2496   -0.2421   -7.1054 C   0  0  0  0  0  0  0  0  0  0  0  0
    5.3423    0.4144   -8.4086 P   0  0  1  0  0  0  0  0  0  0  0  0
    4.7263    0.1191   -9.7944 O   0  0  0  0  0  0  0  0  0  0  0  0
    5.4984    1.9410   -8.2291 O   0  5  0  0  0  0  0  0  0  0  0  0
    6.7867   -0.2888   -8.3025 O   0  0  0  0  0  0  0  0  0  0  0  0
    7.8334   -0.0638   -9.2490 C   0  0  0  0  0  0  0  0  0  0  0  0
    9.0639   -0.8823   -8.8530 C   0  0  0  0  0  0  0  0  0  0  0  0
   -1.3812   -4.1503    0.6589 N   0  0  0  0  0  0  0  0  0  0  0  0
   -1.3919   -2.8081    1.0635 N   0  0  0  0  0  0  0  0  0  0  0  0
   -1.3621   -5.3186    1.5427 C   0  0  0  0  0  0  0  0  0  0  0  0
    1.0039    1.9031    0.0027 H   0  0  0  0  0  0  0  0  0  0  0  0
   -0.5459    1.8868   -0.8726 H   0  0  0  0  0  0  0  0  0  0  0  0
   -0.5289    1.8773    0.9072 H   0  0  0  0  0  0  0  0  0  0  0  0
    0.5123   -0.3556   -0.8948 H   0  0  0  0  0  0  0  0  0  0  0  0
    0.5293   -0.3651    0.8851 H   0  0  0  0  0  0  0  0  0  0  0  0
   -1.9435   -0.1821    0.9097 H   0  0  0  0  0  0  0  0  0  0  0  0
   -1.9605   -0.1726   -0.8702 H   0  0  0  0  0  0  0  0  0  0  0  0
   -1.4365   -1.1817   -4.5379 H   0  0  0  0  0  0  0  0  0  0  0  0
   -1.4477   -2.4944   -8.5939 H   0  0  0  0  0  0  0  0  0  0  0  0
   -1.4240   -4.8384   -7.8579 H   0  0  0  0  0  0  0  0  0  0  0  0
   -2.2760   -6.5432   -7.0012 H   0  0  0  0  0  0  0  0  0  0  0  0
   -0.4962   -6.5193   -7.0099 H   0  0  0  0  0  0  0  0  0  0  0  0
   -0.4655   -8.1304   -5.1252 H   0  0  0  0  0  0  0  0  0  0  0  0
   -2.2452   -8.1544   -5.1166 H   0  0  0  0  0  0  0  0  0  0  0  0
   -2.2451   -9.0014   -7.4470 H   0  0  0  0  0  0  0  0  0  0  0  0
   -0.4653   -8.9775   -7.4556 H   0  0  0  0  0  0  0  0  0  0  0  0
   -1.3352  -10.0896   -6.3717 H   0  0  0  0  0  0  0  0  0  0  0  0
    1.0349    2.1097   -6.3891 H   0  0  0  0  0  0  0  0  0  0  0  0
    0.2435    0.9660   -5.2728 H   0  0  0  0  0  0  0  0  0  0  0  0
    2.7659    0.8157   -5.2406 H   0  0  0  0  0  0  0  0  0  0  0  0
    1.9708   -0.7123   -5.6911 H   0  0  0  0  0  0  0  0  0  0  0  0
    2.7492   -0.4545   -9.2271 H   0  0  0  0  0  0  0  0  0  0  0  0
    1.9612   -1.4383   -7.9696 H   0  0  0  0  0  0  0  0  0  0  0  0
    0.2298   -0.3162   -9.2648 H   0  0  0  0  0  0  0  0  0  0  0  0
    1.0259    1.2621   -9.0282 H   0  0  0  0  0  0  0  0  0  0  0  0
    4.6381    0.0431   -6.1278 H   0  0  0  0  0  0  0  0  0  0  0  0
    4.2102   -1.3290   -7.1778 H   0  0  0  0  0  0  0  0  0  0  0  0
    7.4982   -0.3682  -10.2405 H   0  0  0  0  0  0  0  0  0  0  0  0
    8.0902    0.9954   -9.2617 H   0  0  0  0  0  0  0  0  0  0  0  0
    8.8070   -1.9415   -8.8403 H   0  0  0  0  0  0  0  0  0  0  0  0
    9.8622   -0.7106   -9.5750 H   0  0  0  0  0  0  0  0  0  0  0  0
    9.3990   -0.5778   -7.8615 H   0  0  0  0  0  0  0  0  0  0  0  0
   -0.3297   -5.5950    1.7572 H   0  0  0  0  0  0  0  0  0  0  0  0
   -1.8748   -5.0782    2.4740 H   0  0  0  0  0  0  0  0  0  0  0  0
   -1.8673   -6.1519    1.0544 H   0  0  0  0  0  0  0  0  0  0  0  0
   -1.4310   -1.6821   -2.8169 H   0  0  0  0  0  0  0  0  0  0  0  0
  1  2  1  0  0  0  0
  1 41  1  0  0  0  0
  1 42  1  0  0  0  0
  1 43  1  0  0  0  0
  2  3  1  0  0  0  0
  2 44  1  0  0  0  0
  2 45  1  0  0  0  0
  3  4  1  0  0  0  0
  3 46  1  0  0  0  0
  3 47  1  0  0  0  0
  4 39  2  0  0  0  0
  4  5  1  0  0  0  0
  5 11  1  0  0  0  0
  5  6  2  0  0  0  0
  6  7  1  0  0  0  0
  6 38  1  0  0  0  0
  7  8  2  0  0  0  0
  7  9  1  0  0  0  0
  9 10  2  0  0  0  0
 10 11  1  0  0  0  0
 10 12  1  0  0  0  0
 11 76  1  0  0  0  0
 12 17  2  0  0  0  0
 12 13  1  0  0  0  0
 13 14  2  0  0  0  0
 13 48  1  0  0  0  0
 14 15  1  0  0  0  0
 14 22  1  0  0  0  0
 15 16  2  0  0  0  0
 15 49  1  0  0  0  0
 16 17  1  0  0  0  0
 16 50  1  0  0  0  0
 17 18  1  0  0  0  0
 18 19  1  0  0  0  0
 19 20  1  0  0  0  0
 19 51  1  0  0  0  0
 19 52  1  0  0  0  0
 20 21  1  0  0  0  0
 20 53  1  0  0  0  0
 20 54  1  0  0  0  0
 21 55  1  0  0  0  0
 21 56  1  0  0  0  0
 21 57  1  0  0  0  0
 22 23  2  0  0  0  0
 22 24  2  0  0  0  0
 22 25  1  0  0  0  0
 25 30  1  0  0  0  0
 25 26  1  0  0  0  0
 26 27  1  0  0  0  0
 26 58  1  0  0  0  0
 26 59  1  0  0  0  0
 27 28  1  0  0  0  0
 27 60  1  0  0  0  0
 27 61  1  0  0  0  0
 28 29  1  0  0  0  0
 28 31  1  0  0  0  0
 29 30  1  0  0  0  0
 29 62  1  0  0  0  0
 29 63  1  0  0  0  0
 30 64  1  0  0  0  0
 30 65  1  0  0  0  0
 31 32  1  0  0  0  0
 31 66  1  0  0  0  0
 31 67  1  0  0  0  0
 32 33  2  0  0  0  0
 32 34  1  0  0  0  0
 32 35  1  0  0  0  0
 35 36  1  0  0  0  0
 36 37  1  0  0  0  0
 36 68  1  0  0  0  0
 36 69  1  0  0  0  0
 37 70  1  0  0  0  0
 37 71  1  0  0  0  0
 37 72  1  0  0  0  0
 38 39  1  0  0  0  0
 38 40  1  0  0  0  0
 40 73  1  0  0  0  0
 40 74  1  0  0  0  0
 40 75  1  0  0  0  0
M  CHG  1  34  -1
M  END
$$$$
CHEMBL245517
  -OEChem-07121202283D

 75 78  0     1  0  0  0  0  0999 V2000
   -0.0187    1.5258    0.0104 C   0  0  0  0  0  0  0  0  0  0  0  0
    0.0021   -0.0041    0.0020 C   0  0  0  0  0  0  0  0  0  0  0  0
   -1.4333   -0.5336    0.0129 C   0  0  0  0  0  0  0  0  0  0  0  0
   -1.4129   -2.0405    0.0046 C   0  0  0  0  0  0  0  0  0  0  0  0
   -1.4070   -2.8569   -1.1475 C   0  0  0  0  0  0  0  0  0  0  0  0
   -1.3869   -4.1920   -0.7014 C   0  0  0  0  0  0  0  0  0  0  0  0
   -1.3777   -5.2165   -1.6565 C   0  0  0  0  0  0  0  0  0  0  0  0
   -1.3588   -6.5164   -1.2751 O   0  5  0  0  0  0  0  0  0  0  0  0
   -1.3884   -4.8893   -2.9402 N   0  0  0  0  0  0  0  0  0  0  0  0
   -1.4074   -3.6162   -3.3266 C   0  0  0  0  0  0  0  0  0  0  0  0
   -1.4163   -2.6161   -2.4630 N   0  0  0  0  0  0  0  0  0  0  0  0
   -1.4186   -3.3091   -4.7764 C   0  0  0  0  0  0  0  0  0  0  0  0
   -1.4328   -1.9850   -5.2116 C   0  0  0  0  0  0  0  0  0  0  0  0
   -1.4432   -1.7045   -6.5622 C   0  0  0  0  0  0  0  0  0  0  0  0
   -1.4396   -2.7334   -7.4883 C   0  0  0  0  0  0  0  0  0  0  0  0
   -1.4256   -4.0494   -7.0685 C   0  0  0  0  0  0  0  0  0  0  0  0
   -1.4092   -4.3463   -5.7145 C   0  0  0  0  0  0  0  0  0  0  0  0
   -1.3897   -5.6394   -5.3005 O   0  0  0  0  0  0  0  0  0  0  0  0
   -1.3811   -6.6454   -6.3153 C   0  0  0  0  0  0  0  0  0  0  0  0
   -1.3591   -8.0288   -5.6620 C   0  0  0  0  0  0  0  0  0  0  0  0
   -1.3499   -9.1059   -6.7485 C   0  0  0  0  0  0  0  0  0  0  0  0
   -1.4617   -0.0302   -7.1108 S   0  0  0  0  0  0  0  0  0  0  0  0
   -2.0201   -0.0370   -8.4174 O   0  0  0  0  0  0  0  0  0  0  0  0
   -2.0135    0.7385   -6.0505 O   0  0  0  0  0  0  0  0  0  0  0  0
    0.1150    0.4496   -7.2724 N   0  0  0  0  0  0  0  0  0  0  0  0
    0.8390    1.0557   -6.1447 C   0  0  0  0  0  0  0  0  0  0  0  0
    2.1670    0.3130   -5.9632 C   0  0  0  0  0  0  0  0  0  0  0  0
    2.8976    0.3041   -7.2376 N   0  0  0  0  0  0  0  0  0  0  0  0
    2.1569   -0.4314   -8.2713 C   0  0  0  0  0  0  0  0  0  0  0  0
    0.8304    0.2753   -8.5456 C   0  0  0  0  0  0  0  0  0  0  0  0
    4.2487   -0.2463   -7.0660 C   0  0  0  0  0  0  0  0  0  0  0  0
    5.3409    0.4060   -8.3718 P   0  0  1  0  0  0  0  0  0  0  0  0
    4.7246    0.1056   -9.7563 O   0  0  0  0  0  0  0  0  0  0  0  0
    5.4965    1.9332   -8.1977 O   0  5  0  0  0  0  0  0  0  0  0  0
    6.7855   -0.2964   -8.2636 O   0  0  0  0  0  0  0  0  0  0  0  0
    7.8319   -0.0744   -9.2112 C   0  0  0  0  0  0  0  0  0  0  0  0
    9.0627   -0.8911   -8.8126 C   0  0  0  0  0  0  0  0  0  0  0  0
   -1.3812   -4.1504    0.6672 N   0  0  0  0  0  0  0  0  0  0  0  0
   -1.3920   -2.8055    1.0596 N   0  0  0  0  0  0  0  0  0  0  0  0
   -1.3618   -5.3088    1.5638 C   0  0  0  0  0  0  0  0  0  0  0  0
    1.0039    1.9031    0.0027 H   0  0  0  0  0  0  0  0  0  0  0  0
   -0.5459    1.8868   -0.8726 H   0  0  0  0  0  0  0  0  0  0  0  0
   -0.5289    1.8773    0.9072 H   0  0  0  0  0  0  0  0  0  0  0  0
    0.5123   -0.3556   -0.8948 H   0  0  0  0  0  0  0  0  0  0  0  0
    0.5293   -0.3651    0.8851 H   0  0  0  0  0  0  0  0  0  0  0  0
   -1.9435   -0.1821    0.9097 H   0  0  0  0  0  0  0  0  0  0  0  0
   -1.9605   -0.1726   -0.8702 H   0  0  0  0  0  0  0  0  0  0  0  0
   -1.4360   -1.1795   -4.4922 H   0  0  0  0  0  0  0  0  0  0  0  0
   -1.4482   -2.5062   -8.5441 H   0  0  0  0  0  0  0  0  0  0  0  0
   -1.4233   -4.8477   -7.7959 H   0  0  0  0  0  0  0  0  0  0  0  0
   -2.2755   -6.5484   -6.9307 H   0  0  0  0  0  0  0  0  0  0  0  0
   -0.4957   -6.5243   -6.9395 H   0  0  0  0  0  0  0  0  0  0  0  0
   -0.4647   -8.1258   -5.0466 H   0  0  0  0  0  0  0  0  0  0  0  0
   -2.2445   -8.1499   -5.0378 H   0  0  0  0  0  0  0  0  0  0  0  0
   -0.4646   -8.9848   -7.3727 H   0  0  0  0  0  0  0  0  0  0  0  0
   -1.3343  -10.0914   -6.2831 H   0  0  0  0  0  0  0  0  0  0  0  0
   -2.2443   -9.0089   -7.3639 H   0  0  0  0  0  0  0  0  0  0  0  0
    1.0335    2.1070   -6.3571 H   0  0  0  0  0  0  0  0  0  0  0  0
    0.2427    0.9670   -5.2366 H   0  0  0  0  0  0  0  0  0  0  0  0
    2.7652    0.8176   -5.2045 H   0  0  0  0  0  0  0  0  0  0  0  0
    1.9704   -0.7122   -5.6495 H   0  0  0  0  0  0  0  0  0  0  0  0
    2.7478   -0.4666   -9.1865 H   0  0  0  0  0  0  0  0  0  0  0  0
    1.9605   -1.4462   -7.9254 H   0  0  0  0  0  0  0  0  0  0  0  0
    0.2284   -0.3292   -9.2240 H   0  0  0  0  0  0  0  0  0  0  0  0
    1.0240    1.2501   -8.9932 H   0  0  0  0  0  0  0  0  0  0  0  0
    4.6373    0.0425   -6.0895 H   0  0  0  0  0  0  0  0  0  0  0  0
    4.2096   -1.3334   -7.1345 H   0  0  0  0  0  0  0  0  0  0  0  0
    7.4965   -0.3825  -10.2015 H   0  0  0  0  0  0  0  0  0  0  0  0
    8.0884    0.9848   -9.2276 H   0  0  0  0  0  0  0  0  0  0  0  0
    9.8608   -0.7218   -9.5354 H   0  0  0  0  0  0  0  0  0  0  0  0
    9.3980   -0.5831   -7.8222 H   0  0  0  0  0  0  0  0  0  0  0  0
    8.8062   -1.9504   -8.7961 H   0  0  0  0  0  0  0  0  0  0  0  0
   -0.3294   -5.5825    1.7815 H   0  0  0  0  0  0  0  0  0  0  0  0
   -1.8748   -5.0582    2.4923 H   0  0  0  0  0  0  0  0  0  0  0  0
   -1.8667   -6.1476    1.0847 H   0  0  0  0  0  0  0  0  0  0  0  0
  1  2  1  0  0  0  0
  1 41  1  0  0  0  0
  1 42  1  0  0  0  0
  1 43  1  0  0  0  0
  2  3  1  0  0  0  0
  2 44  1  0  0  0  0
  2 45  1  0  0  0  0
  3  4  1  0  0  0  0
  3 46  1  0  0  0  0
  3 47  1  0  0  0  0
  4 39  2  0  0  0  0
  4  5  1  0  0  0  0
  5 11  2  0  0  0  0
  5  6  1  0  0  0  0
  6  7  2  0  0  0  0
  6 38  1  0  0  0  0
  7  8  1  0  0  0  0
  7  9  1  0  0  0  0
  9 10  2  0  0  0  0
 10 11  1  0  0  0  0
 10 12  1  0  0  0  0
 12 17  2  0  0  0  0
 12 13  1  0  0  0  0
 13 14  2  0  0  0  0
 13 48  1  0  0  0  0
 14 15  1  0  0  0  0
 14 22  1  0  0  0  0
 15 16  2  0  0  0  0
 15 49  1  0  0  0  0
 16 17  1  0  0  0  0
 16 50  1  0  0  0  0
 17 18  1  0  0  0  0
 18 19  1  0  0  0  0
 19 20  1  0  0  0  0
 19 51  1  0  0  0  0
 19 52  1  0  0  0  0
 20 21  1  0  0  0  0
 20 53  1  0  0  0  0
 20 54  1  0  0  0  0
 21 55  1  0  0  0  0
 21 56  1  0  0  0  0
 21 57  1  0  0  0  0
 22 23  2  0  0  0  0
 22 24  2  0  0  0  0
 22 25  1  0  0  0  0
 25 30  1  0  0  0  0
 25 26  1  0  0  0  0
 26 27  1  0  0  0  0
 26 58  1  0  0  0  0
 26 59  1  0  0  0  0
 27 28  1  0  0  0  0
 27 60  1  0  0  0  0
 27 61  1  0  0  0  0
 28 29  1  0  0  0  0
 28 31  1  0  0  0  0
 29 30  1  0  0  0  0
 29 62  1  0  0  0  0
 29 63  1  0  0  0  0
 30 64  1  0  0  0  0
 30 65  1  0  0  0  0
 31 32  1  0  0  0  0
 31 66  1  0  0  0  0
 31 67  1  0  0  0  0
 32 33  2  0  0  0  0
 32 34  1  0  0  0  0
 32 35  1  0  0  0  0
 35 36  1  0  0  0  0
 36 37  1  0  0  0  0
 36 68  1  0  0  0  0
 36 69  1  0  0  0  0
 37 70  1  0  0  0  0
 37 71  1  0  0  0  0
 37 72  1  0  0  0  0
 38 39  1  0  0  0  0
 38 40  1  0  0  0  0
 40 73  1  0  0  0  0
 40 74  1  0  0  0  0
 40 75  1  0  0  0  0
M  CHG  2   8  -1  34  -1
M  END
$$$$
CHEMBL245517
  -OEChem-07121202283D

 76 79  0     1  0  0  0  0  0999 V2000
   -0.0187    1.5258    0.0104 C   0  0  0  0  0  0  0  0  0  0  0  0
    0.0021   -0.0041    0.0020 C   0  0  0  0  0  0  0  0  0  0  0  0
   -1.4333   -0.5336    0.0129 C   0  0  0  0  0  0  0  0  0  0  0  0
   -1.4129   -2.0405    0.0046 C   0  0  0  0  0  0  0  0  0  0  0  0
   -1.4070   -2.8548   -1.1446 C   0  0  0  0  0  0  0  0  0  0  0  0
   -1.3861   -4.1841   -0.7032 C   0  0  0  0  0  0  0  0  0  0  0  0
   -1.3769   -5.2214   -1.6643 C   0  0  0  0  0  0  0  0  0  0  0  0
   -1.3591   -6.3907   -1.3206 O   0  0  0  0  0  0  0  0  0  0  0  0
   -1.3887   -4.8848   -2.9731 N   0  0  0  0  0  0  0  0  0  0  0  0
   -1.3827   -5.5793   -3.6502 H   0  0  0  0  0  0  0  0  0  0  0  0
   -1.4095   -3.5686   -3.3476 C   0  0  0  0  0  0  0  0  0  0  0  0
   -1.4171   -2.5966   -2.4679 N   0  0  0  0  0  0  0  0  0  0  0  0
   -1.4219   -3.2333   -4.7854 C   0  0  0  0  0  0  0  0  0  0  0  0
   -1.4183   -4.2493   -5.7432 C   0  0  0  0  0  0  0  0  0  0  0  0
   -1.4299   -3.9298   -7.0842 C   0  0  0  0  0  0  0  0  0  0  0  0
   -1.4448   -2.6046   -7.4863 C   0  0  0  0  0  0  0  0  0  0  0  0
   -1.4485   -1.5903   -6.5488 C   0  0  0  0  0  0  0  0  0  0  0  0
   -1.4433   -1.8942   -5.1961 C   0  0  0  0  0  0  0  0  0  0  0  0
   -1.4527   -0.8984   -4.2738 O   0  0  0  0  0  0  0  0  0  0  0  0
   -1.4745    0.4426   -4.7671 C   0  0  0  0  0  0  0  0  0  0  0  0
   -1.4823    1.4191   -3.5893 C   0  0  0  0  0  0  0  0  0  0  0  0
   -1.5057    2.8549   -4.1174 C   0  0  0  0  0  0  0  0  0  0  0  0
   -1.4253   -5.2129   -8.2917 S   0  0  0  0  0  0  0  0  0  0  0  0
   -0.8874   -4.6500   -9.4805 O   0  0  0  0  0  0  0  0  0  0  0  0
   -0.8594   -6.3568   -7.6667 O   0  0  0  0  0  0  0  0  0  0  0  0
   -3.0059   -5.5847   -8.6172 N   0  0  0  0  0  0  0  0  0  0  0  0
   -3.7140   -6.6149   -7.8423 C   0  0  0  0  0  0  0  0  0  0  0  0
   -5.0367   -6.0245   -7.3421 C   0  0  0  0  0  0  0  0  0  0  0  0
   -5.7871   -5.4782   -8.4807 N   0  0  0  0  0  0  0  0  0  0  0  0
   -5.0604   -4.3708   -9.1159 C   0  0  0  0  0  0  0  0  0  0  0  0
   -3.7406   -4.8891   -9.6847 C   0  0  0  0  0  0  0  0  0  0  0  0
   -7.1336   -5.0579   -8.0708 C   0  0  0  0  0  0  0  0  0  0  0  0
   -8.2482   -5.0984   -9.5128 P   0  0  1  0  0  0  0  0  0  0  0  0
   -7.6528   -4.2364  -10.6483 O   0  0  0  0  0  0  0  0  0  0  0  0
   -8.4059   -6.5557  -10.0010 O   0  5  0  0  0  0  0  0  0  0  0  0
   -9.6888   -4.5138   -9.0942 O   0  0  0  0  0  0  0  0  0  0  0  0
  -10.7505   -4.3166  -10.0301 C   0  0  0  0  0  0  0  0  0  0  0  0
  -11.9724   -3.7510   -9.3035 C   0  0  0  0  0  0  0  0  0  0  0  0
   -1.3799   -4.1501    0.6637 N   0  0  0  0  0  0  0  0  0  0  0  0
   -1.3920   -2.8068    1.0614 N   0  0  0  0  0  0  0  0  0  0  0  0
   -1.3598   -5.3128    1.5547 C   0  0  0  0  0  0  0  0  0  0  0  0
    1.0039    1.9031    0.0027 H   0  0  0  0  0  0  0  0  0  0  0  0
   -0.5459    1.8868   -0.8726 H   0  0  0  0  0  0  0  0  0  0  0  0
   -0.5289    1.8773    0.9072 H   0  0  0  0  0  0  0  0  0  0  0  0
    0.5123   -0.3556   -0.8948 H   0  0  0  0  0  0  0  0  0  0  0  0
    0.5293   -0.3651    0.8851 H   0  0  0  0  0  0  0  0  0  0  0  0
   -1.9435   -0.1821    0.9097 H   0  0  0  0  0  0  0  0  0  0  0  0
   -1.9605   -0.1726   -0.8702 H   0  0  0  0  0  0  0  0  0  0  0  0
   -1.4060   -5.2840   -5.4339 H   0  0  0  0  0  0  0  0  0  0  0  0
   -1.4531   -2.3629   -8.5389 H   0  0  0  0  0  0  0  0  0  0  0  0
   -1.4598   -0.5592   -6.8698 H   0  0  0  0  0  0  0  0  0  0  0  0
   -0.5902    0.6189   -5.3794 H   0  0  0  0  0  0  0  0  0  0  0  0
   -2.3699    0.5934   -5.3701 H   0  0  0  0  0  0  0  0  0  0  0  0
   -2.3667    1.2428   -2.9770 H   0  0  0  0  0  0  0  0  0  0  0  0
   -0.5869    1.2683   -2.9863 H   0  0  0  0  0  0  0  0  0  0  0  0
   -0.6213    3.0312   -4.7297 H   0  0  0  0  0  0  0  0  0  0  0  0
   -2.4011    3.0057   -4.7204 H   0  0  0  0  0  0  0  0  0  0  0  0
   -1.5112    3.5506   -3.2783 H   0  0  0  0  0  0  0  0  0  0  0  0
   -3.9151   -7.4774   -8.4778 H   0  0  0  0  0  0  0  0  0  0  0  0
   -3.1033   -6.9177   -6.9918 H   0  0  0  0  0  0  0  0  0  0  0  0
   -5.6245   -6.8057   -6.8602 H   0  0  0  0  0  0  0  0  0  0  0  0
   -4.8320   -5.2286   -6.6260 H   0  0  0  0  0  0  0  0  0  0  0  0
   -5.6655   -3.9526   -9.9203 H   0  0  0  0  0  0  0  0  0  0  0  0
   -4.8554   -3.5980   -8.3750 H   0  0  0  0  0  0  0  0  0  0  0  0
   -3.1474   -4.0515  -10.0517 H   0  0  0  0  0  0  0  0  0  0  0  0
   -3.9443   -5.5825  -10.5007 H   0  0  0  0  0  0  0  0  0  0  0  0
   -7.5078   -5.7353   -7.3032 H   0  0  0  0  0  0  0  0  0  0  0  0
   -7.0922   -4.0443   -7.6720 H   0  0  0  0  0  0  0  0  0  0  0  0
  -10.4298   -3.6161  -10.8011 H   0  0  0  0  0  0  0  0  0  0  0  0
  -11.0106   -5.2697  -10.4906 H   0  0  0  0  0  0  0  0  0  0  0  0
  -12.7822   -3.6006  -10.0173 H   0  0  0  0  0  0  0  0  0  0  0  0
  -12.2931   -4.4515   -8.5324 H   0  0  0  0  0  0  0  0  0  0  0  0
  -11.7123   -2.7979   -8.8429 H   0  0  0  0  0  0  0  0  0  0  0  0
   -0.3273   -5.5873    1.7707 H   0  0  0  0  0  0  0  0  0  0  0  0
   -1.8725   -5.0668    2.4846 H   0  0  0  0  0  0  0  0  0  0  0  0
   -1.8648   -6.1494    1.0718 H   0  0  0  0  0  0  0  0  0  0  0  0
  1  2  1  0  0  0  0
  1 42  1  0  0  0  0
  1 43  1  0  0  0  0
  1 44  1  0  0  0  0
  2  3  1  0  0  0  0
  2 45  1  0  0  0  0
  2 46  1  0  0  0  0
  3  4  1  0  0  0  0
  3 47  1  0  0  0  0
  3 48  1  0  0  0  0
  4 40  2  0  0  0  0
  4  5  1  0  0  0  0
  5 12  1  0  0  0  0
  5  6  2  0  0  0  0
  6  7  1  0  0  0  0
  6 39  1  0  0  0  0
  7  8  2  0  0  0  0
  7  9  1  0  0  0  0
  9 10  1  0  0  0  0
  9 11  1  0  0  0  0
 11 12  2  0  0  0  0
 11 13  1  0  0  0  0
 13 18  2  0  0  0  0
 13 14  1  0  0  0  0
 14 15  2  0  0  0  0
 14 49  1  0  0  0  0
 15 16  1  0  0  0  0
 15 23  1  0  0  0  0
 16 17  2  0  0  0  0
 16 50  1  0  0  0  0
 17 18  1  0  0  0  0
 17 51  1  0  0  0  0
 18 19  1  0  0  0  0
 19 20  1  0  0  0  0
 20 21  1  0  0  0  0
 20 52  1  0  0  0  0
 20 53  1  0  0  0  0
 21 22  1  0  0  0  0
 21 54  1  0  0  0  0
 21 55  1  0  0  0  0
 22 56  1  0  0  0  0
 22 57  1  0  0  0  0
 22 58  1  0  0  0  0
 23 24  2  0  0  0  0
 23 25  2  0  0  0  0
 23 26  1  0  0  0  0
 26 31  1  0  0  0  0
 26 27  1  0  0  0  0
 27 28  1  0  0  0  0
 27 59  1  0  0  0  0
 27 60  1  0  0  0  0
 28 29  1  0  0  0  0
 28 61  1  0  0  0  0
 28 62  1  0  0  0  0
 29 30  1  0  0  0  0
 29 32  1  0  0  0  0
 30 31  1  0  0  0  0
 30 63  1  0  0  0  0
 30 64  1  0  0  0  0
 31 65  1  0  0  0  0
 31 66  1  0  0  0  0
 32 33  1  0  0  0  0
 32 67  1  0  0  0  0
 32 68  1  0  0  0  0
 33 34  2  0  0  0  0
 33 35  1  0  0  0  0
 33 36  1  0  0  0  0
 36 37  1  0  0  0  0
 37 38  1  0  0  0  0
 37 69  1  0  0  0  0
 37 70  1  0  0  0  0
 38 71  1  0  0  0  0
 38 72  1  0  0  0  0
 38 73  1  0  0  0  0
 39 40  1  0  0  0  0
 39 41  1  0  0  0  0
 41 74  1  0  0  0  0
 41 75  1  0  0  0  0
 41 76  1  0  0  0  0
M  CHG  1  35  -1
M  END
$$$$
CHEMBL245517
  -OEChem-07121202283D

 76 79  0     1  0  0  0  0  0999 V2000
   -0.0187    1.5258    0.0104 C   0  0  0  0  0  0  0  0  0  0  0  0
    0.0021   -0.0041    0.0020 C   0  0  0  0  0  0  0  0  0  0  0  0
   -1.4333   -0.5336    0.0129 C   0  0  0  0  0  0  0  0  0  0  0  0
   -1.4129   -2.0405    0.0046 C   0  0  0  0  0  0  0  0  0  0  0  0
   -1.4071   -2.8493   -1.1371 C   0  0  0  0  0  0  0  0  0  0  0  0
   -1.3871   -4.1737   -0.7055 C   0  0  0  0  0  0  0  0  0  0  0  0
   -1.3778   -5.2332   -1.7158 C   0  0  0  0  0  0  0  0  0  0  0  0
   -1.3607   -6.4084   -1.3854 O   0  0  0  0  0  0  0  0  0  0  0  0
   -1.3888   -4.8868   -3.0129 N   0  0  0  0  0  0  0  0  0  0  0  0
   -1.4076   -3.6251   -3.3867 C   0  0  0  0  0  0  0  0  0  0  0  0
   -1.4171   -2.5975   -2.4964 N   0  0  0  0  0  0  0  0  0  0  0  0
   -1.4188   -3.3135   -4.8285 C   0  0  0  0  0  0  0  0  0  0  0  0
   -1.4330   -1.9848   -5.2600 C   0  0  0  0  0  0  0  0  0  0  0  0
   -1.4429   -1.7003   -6.6083 C   0  0  0  0  0  0  0  0  0  0  0  0
   -1.4394   -2.7264   -7.5391 C   0  0  0  0  0  0  0  0  0  0  0  0
   -1.4259   -4.0440   -7.1262 C   0  0  0  0  0  0  0  0  0  0  0  0
   -1.4095   -4.3485   -5.7734 C   0  0  0  0  0  0  0  0  0  0  0  0
   -1.3901   -5.6427   -5.3664 O   0  0  0  0  0  0  0  0  0  0  0  0
   -1.3816   -6.6435   -6.3863 C   0  0  0  0  0  0  0  0  0  0  0  0
   -1.3598   -8.0302   -5.7401 C   0  0  0  0  0  0  0  0  0  0  0  0
   -1.3507   -9.1017   -6.8321 C   0  0  0  0  0  0  0  0  0  0  0  0
   -1.4608   -0.0240   -7.1509 S   0  0  0  0  0  0  0  0  0  0  0  0
   -2.0188   -0.0261   -8.4578 O   0  0  0  0  0  0  0  0  0  0  0  0
   -2.0126    0.7410   -6.0882 O   0  0  0  0  0  0  0  0  0  0  0  0
    0.1161    0.4558   -7.3104 N   0  0  0  0  0  0  0  0  0  0  0  0
    0.8400    1.0577   -6.1804 C   0  0  0  0  0  0  0  0  0  0  0  0
    2.1678    0.3139   -6.0012 C   0  0  0  0  0  0  0  0  0  0  0  0
    2.8987    0.3093   -7.2754 N   0  0  0  0  0  0  0  0  0  0  0  0
    2.1581   -0.4223   -8.3119 C   0  0  0  0  0  0  0  0  0  0  0  0
    0.8318    0.2857   -8.5841 C   0  0  0  0  0  0  0  0  0  0  0  0
    4.2496   -0.2421   -7.1054 C   0  0  0  0  0  0  0  0  0  0  0  0
    5.3423    0.4144   -8.4086 P   0  0  1  0  0  0  0  0  0  0  0  0
    4.7263    0.1191   -9.7944 O   0  0  0  0  0  0  0  0  0  0  0  0
    5.4984    1.9410   -8.2291 O   0  5  0  0  0  0  0  0  0  0  0  0
    6.7867   -0.2888   -8.3025 O   0  0  0  0  0  0  0  0  0  0  0  0
    7.8334   -0.0638   -9.2490 C   0  0  0  0  0  0  0  0  0  0  0  0
    9.0639   -0.8823   -8.8530 C   0  0  0  0  0  0  0  0  0  0  0  0
   -1.3812   -4.1503    0.6589 N   0  0  0  0  0  0  0  0  0  0  0  0
   -1.3919   -2.8081    1.0635 N   0  0  0  0  0  0  0  0  0  0  0  0
   -1.3621   -5.3186    1.5427 C   0  0  0  0  0  0  0  0  0  0  0  0
    1.0039    1.9031    0.0027 H   0  0  0  0  0  0  0  0  0  0  0  0
   -0.5459    1.8868   -0.8726 H   0  0  0  0  0  0  0  0  0  0  0  0
   -0.5289    1.8773    0.9072 H   0  0  0  0  0  0  0  0  0  0  0  0
    0.5123   -0.3556   -0.8948 H   0  0  0  0  0  0  0  0  0  0  0  0
    0.5293   -0.3651    0.8851 H   0  0  0  0  0  0  0  0  0  0  0  0
   -1.9435   -0.1821    0.9097 H   0  0  0  0  0  0  0  0  0  0  0  0
   -1.9605   -0.1726   -0.8702 H   0  0  0  0  0  0  0  0  0  0  0  0
   -1.4365   -1.1817   -4.5379 H   0  0  0  0  0  0  0  0  0  0  0  0
   -1.4477   -2.4944   -8.5939 H   0  0  0  0  0  0  0  0  0  0  0  0
   -1.4240   -4.8384   -7.8579 H   0  0  0  0  0  0  0  0  0  0  0  0
   -2.2760   -6.5432   -7.0012 H   0  0  0  0  0  0  0  0  0  0  0  0
   -0.4962   -6.5193   -7.0099 H   0  0  0  0  0  0  0  0  0  0  0  0
   -0.4655   -8.1304   -5.1252 H   0  0  0  0  0  0  0  0  0  0  0  0
   -2.2452   -8.1544   -5.1166 H   0  0  0  0  0  0  0  0  0  0  0  0
   -2.2451   -9.0014   -7.4470 H   0  0  0  0  0  0  0  0  0  0  0  0
   -0.4653   -8.9775   -7.4556 H   0  0  0  0  0  0  0  0  0  0  0  0
   -1.3352  -10.0896   -6.3717 H   0  0  0  0  0  0  0  0  0  0  0  0
    1.0349    2.1097   -6.3891 H   0  0  0  0  0  0  0  0  0  0  0  0
    0.2435    0.9660   -5.2728 H   0  0  0  0  0  0  0  0  0  0  0  0
    2.7659    0.8157   -5.2406 H   0  0  0  0  0  0  0  0  0  0  0  0
    1.9708   -0.7123   -5.6911 H   0  0  0  0  0  0  0  0  0  0  0  0
    2.7492   -0.4545   -9.2271 H   0  0  0  0  0  0  0  0  0  0  0  0
    1.9612   -1.4383   -7.9696 H   0  0  0  0  0  0  0  0  0  0  0  0
    0.2298   -0.3162   -9.2648 H   0  0  0  0  0  0  0  0  0  0  0  0
    1.0259    1.2621   -9.0282 H   0  0  0  0  0  0  0  0  0  0  0  0
    4.6381    0.0431   -6.1278 H   0  0  0  0  0  0  0  0  0  0  0  0
    4.2102   -1.3290   -7.1778 H   0  0  0  0  0  0  0  0  0  0  0  0
    7.4982   -0.3682  -10.2405 H   0  0  0  0  0  0  0  0  0  0  0  0
    8.0902    0.9954   -9.2617 H   0  0  0  0  0  0  0  0  0  0  0  0
    8.8070   -1.9415   -8.8403 H   0  0  0  0  0  0  0  0  0  0  0  0
    9.8622   -0.7106   -9.5750 H   0  0  0  0  0  0  0  0  0  0  0  0
    9.3990   -0.5778   -7.8615 H   0  0  0  0  0  0  0  0  0  0  0  0
   -0.3297   -5.5950    1.7572 H   0  0  0  0  0  0  0  0  0  0  0  0
   -1.8748   -5.0782    2.4740 H   0  0  0  0  0  0  0  0  0  0  0  0
   -1.8673   -6.1519    1.0544 H   0  0  0  0  0  0  0  0  0  0  0  0
   -1.4310   -1.6821   -2.8169 H   0  0  0  0  0  0  0  0  0  0  0  0
  1  2  1  0  0  0  0
  1 41  1  0  0  0  0
  1 42  1  0  0  0  0
  1 43  1  0  0  0  0
  2  3  1  0  0  0  0
  2 44  1  0  0  0  0
  2 45  1  0  0  0  0
  3  4  1  0  0  0  0
  3 46  1  0  0  0  0
  3 47  1  0  0  0  0
  4 39  2  0  0  0  0
  4  5  1  0  0  0  0
  5 11  1  0  0  0  0
  5  6  2  0  0  0  0
  6  7  1  0  0  0  0
  6 38  1  0  0  0  0
  7  8  2  0  0  0  0
  7  9  1  0  0  0  0
  9 10  2  0  0  0  0
 10 11  1  0  0  0  0
 10 12  1  0  0  0  0
 11 76  1  0  0  0  0
 12 17  2  0  0  0  0
 12 13  1  0  0  0  0
 13 14  2  0  0  0  0
 13 48  1  0  0  0  0
 14 15  1  0  0  0  0
 14 22  1  0  0  0  0
 15 16  2  0  0  0  0
 15 49  1  0  0  0  0
 16 17  1  0  0  0  0
 16 50  1  0  0  0  0
 17 18  1  0  0  0  0
 18 19  1  0  0  0  0
 19 20  1  0  0  0  0
 19 51  1  0  0  0  0
 19 52  1  0  0  0  0
 20 21  1  0  0  0  0
 20 53  1  0  0  0  0
 20 54  1  0  0  0  0
 21 55  1  0  0  0  0
 21 56  1  0  0  0  0
 21 57  1  0  0  0  0
 22 23  2  0  0  0  0
 22 24  2  0  0  0  0
 22 25  1  0  0  0  0
 25 30  1  0  0  0  0
 25 26  1  0  0  0  0
 26 27  1  0  0  0  0
 26 58  1  0  0  0  0
 26 59  1  0  0  0  0
 27 28  1  0  0  0  0
 27 60  1  0  0  0  0
 27 61  1  0  0  0  0
 28 29  1  0  0  0  0
 28 31  1  0  0  0  0
 29 30  1  0  0  0  0
 29 62  1  0  0  0  0
 29 63  1  0  0  0  0
 30 64  1  0  0  0  0
 30 65  1  0  0  0  0
 31 32  1  0  0  0  0
 31 66  1  0  0  0  0
 31 67  1  0  0  0  0
 32 33  2  0  0  0  0
 32 34  1  0  0  0  0
 32 35  1  0  0  0  0
 35 36  1  0  0  0  0
 36 37  1  0  0  0  0
 36 68  1  0  0  0  0
 36 69  1  0  0  0  0
 37 70  1  0  0  0  0
 37 71  1  0  0  0  0
 37 72  1  0  0  0  0
 38 39  1  0  0  0  0
 38 40  1  0  0  0  0
 40 73  1  0  0  0  0
 40 74  1  0  0  0  0
 40 75  1  0  0  0  0
M  CHG  1  34  -1
M  END
$$$$
CHEMBL245517
  -OEChem-07121202283D

 75 78  0     1  0  0  0  0  0999 V2000
   -0.0187    1.5258    0.0104 C   0  0  0  0  0  0  0  0  0  0  0  0
    0.0021   -0.0041    0.0020 C   0  0  0  0  0  0  0  0  0  0  0  0
   -1.4333   -0.5336    0.0129 C   0  0  0  0  0  0  0  0  0  0  0  0
   -1.4129   -2.0405    0.0046 C   0  0  0  0  0  0  0  0  0  0  0  0
   -1.4070   -2.8569   -1.1475 C   0  0  0  0  0  0  0  0  0  0  0  0
   -1.3869   -4.1920   -0.7014 C   0  0  0  0  0  0  0  0  0  0  0  0
   -1.3777   -5.2165   -1.6565 C   0  0  0  0  0  0  0  0  0  0  0  0
   -1.3588   -6.5164   -1.2751 O   0  5  0  0  0  0  0  0  0  0  0  0
   -1.3884   -4.8893   -2.9402 N   0  0  0  0  0  0  0  0  0  0  0  0
   -1.4074   -3.6162   -3.3266 C   0  0  0  0  0  0  0  0  0  0  0  0
   -1.4163   -2.6161   -2.4630 N   0  0  0  0  0  0  0  0  0  0  0  0
   -1.4186   -3.3091   -4.7764 C   0  0  0  0  0  0  0  0  0  0  0  0
   -1.4328   -1.9850   -5.2116 C   0  0  0  0  0  0  0  0  0  0  0  0
   -1.4432   -1.7045   -6.5622 C   0  0  0  0  0  0  0  0  0  0  0  0
   -1.4396   -2.7334   -7.4883 C   0  0  0  0  0  0  0  0  0  0  0  0
   -1.4256   -4.0494   -7.0685 C   0  0  0  0  0  0  0  0  0  0  0  0
   -1.4092   -4.3463   -5.7145 C   0  0  0  0  0  0  0  0  0  0  0  0
   -1.3897   -5.6394   -5.3005 O   0  0  0  0  0  0  0  0  0  0  0  0
   -1.3811   -6.6454   -6.3153 C   0  0  0  0  0  0  0  0  0  0  0  0
   -1.3591   -8.0288   -5.6620 C   0  0  0  0  0  0  0  0  0  0  0  0
   -1.3499   -9.1059   -6.7485 C   0  0  0  0  0  0  0  0  0  0  0  0
   -1.4617   -0.0302   -7.1108 S   0  0  0  0  0  0  0  0  0  0  0  0
   -2.0201   -0.0370   -8.4174 O   0  0  0  0  0  0  0  0  0  0  0  0
   -2.0135    0.7385   -6.0505 O   0  0  0  0  0  0  0  0  0  0  0  0
    0.1150    0.4496   -7.2724 N   0  0  0  0  0  0  0  0  0  0  0  0
    0.8390    1.0557   -6.1447 C   0  0  0  0  0  0  0  0  0  0  0  0
    2.1670    0.3130   -5.9632 C   0  0  0  0  0  0  0  0  0  0  0  0
    2.8976    0.3041   -7.2376 N   0  0  0  0  0  0  0  0  0  0  0  0
    2.1569   -0.4314   -8.2713 C   0  0  0  0  0  0  0  0  0  0  0  0
    0.8304    0.2753   -8.5456 C   0  0  0  0  0  0  0  0  0  0  0  0
    4.2487   -0.2463   -7.0660 C   0  0  0  0  0  0  0  0  0  0  0  0
    5.3409    0.4060   -8.3718 P   0  0  1  0  0  0  0  0  0  0  0  0
    4.7246    0.1056   -9.7563 O   0  0  0  0  0  0  0  0  0  0  0  0
    5.4965    1.9332   -8.1977 O   0  5  0  0  0  0  0  0  0  0  0  0
    6.7855   -0.2964   -8.2636 O   0  0  0  0  0  0  0  0  0  0  0  0
    7.8319   -0.0744   -9.2112 C   0  0  0  0  0  0  0  0  0  0  0  0
    9.0627   -0.8911   -8.8126 C   0  0  0  0  0  0  0  0  0  0  0  0
   -1.3812   -4.1504    0.6672 N   0  0  0  0  0  0  0  0  0  0  0  0
   -1.3920   -2.8055    1.0596 N   0  0  0  0  0  0  0  0  0  0  0  0
   -1.3618   -5.3088    1.5638 C   0  0  0  0  0  0  0  0  0  0  0  0
    1.0039    1.9031    0.0027 H   0  0  0  0  0  0  0  0  0  0  0  0
   -0.5459    1.8868   -0.8726 H   0  0  0  0  0  0  0  0  0  0  0  0
   -0.5289    1.8773    0.9072 H   0  0  0  0  0  0  0  0  0  0  0  0
    0.5123   -0.3556   -0.8948 H   0  0  0  0  0  0  0  0  0  0  0  0
    0.5293   -0.3651    0.8851 H   0  0  0  0  0  0  0  0  0  0  0  0
   -1.9435   -0.1821    0.9097 H   0  0  0  0  0  0  0  0  0  0  0  0
   -1.9605   -0.1726   -0.8702 H   0  0  0  0  0  0  0  0  0  0  0  0
   -1.4360   -1.1795   -4.4922 H   0  0  0  0  0  0  0  0  0  0  0  0
   -1.4482   -2.5062   -8.5441 H   0  0  0  0  0  0  0  0  0  0  0  0
   -1.4233   -4.8477   -7.7959 H   0  0  0  0  0  0  0  0  0  0  0  0
   -2.2755   -6.5484   -6.9307 H   0  0  0  0  0  0  0  0  0  0  0  0
   -0.4957   -6.5243   -6.9395 H   0  0  0  0  0  0  0  0  0  0  0  0
   -0.4647   -8.1258   -5.0466 H   0  0  0  0  0  0  0  0  0  0  0  0
   -2.2445   -8.1499   -5.0378 H   0  0  0  0  0  0  0  0  0  0  0  0
   -0.4646   -8.9848   -7.3727 H   0  0  0  0  0  0  0  0  0  0  0  0
   -1.3343  -10.0914   -6.2831 H   0  0  0  0  0  0  0  0  0  0  0  0
   -2.2443   -9.0089   -7.3639 H   0  0  0  0  0  0  0  0  0  0  0  0
    1.0335    2.1070   -6.3571 H   0  0  0  0  0  0  0  0  0  0  0  0
    0.2427    0.9670   -5.2366 H   0  0  0  0  0  0  0  0  0  0  0  0
    2.7652    0.8176   -5.2045 H   0  0  0  0  0  0  0  0  0  0  0  0
    1.9704   -0.7122   -5.6495 H   0  0  0  0  0  0  0  0  0  0  0  0
    2.7478   -0.4666   -9.1865 H   0  0  0  0  0  0  0  0  0  0  0  0
    1.9605   -1.4462   -7.9254 H   0  0  0  0  0  0  0  0  0  0  0  0
    0.2284   -0.3292   -9.2240 H   0  0  0  0  0  0  0  0  0  0  0  0
    1.0240    1.2501   -8.9932 H   0  0  0  0  0  0  0  0  0  0  0  0
    4.6373    0.0425   -6.0895 H   0  0  0  0  0  0  0  0  0  0  0  0
    4.2096   -1.3334   -7.1345 H   0  0  0  0  0  0  0  0  0  0  0  0
    7.4965   -0.3825  -10.2015 H   0  0  0  0  0  0  0  0  0  0  0  0
    8.0884    0.9848   -9.2276 H   0  0  0  0  0  0  0  0  0  0  0  0
    9.8608   -0.7218   -9.5354 H   0  0  0  0  0  0  0  0  0  0  0  0
    9.3980   -0.5831   -7.8222 H   0  0  0  0  0  0  0  0  0  0  0  0
    8.8062   -1.9504   -8.7961 H   0  0  0  0  0  0  0  0  0  0  0  0
   -0.3294   -5.5825    1.7815 H   0  0  0  0  0  0  0  0  0  0  0  0
   -1.8748   -5.0582    2.4923 H   0  0  0  0  0  0  0  0  0  0  0  0
   -1.8667   -6.1476    1.0847 H   0  0  0  0  0  0  0  0  0  0  0  0
  1  2  1  0  0  0  0
  1 41  1  0  0  0  0
  1 42  1  0  0  0  0
  1 43  1  0  0  0  0
  2  3  1  0  0  0  0
  2 44  1  0  0  0  0
  2 45  1  0  0  0  0
  3  4  1  0  0  0  0
  3 46  1  0  0  0  0
  3 47  1  0  0  0  0
  4 39  2  0  0  0  0
  4  5  1  0  0  0  0
  5 11  2  0  0  0  0
  5  6  1  0  0  0  0
  6  7  2  0  0  0  0
  6 38  1  0  0  0  0
  7  8  1  0  0  0  0
  7  9  1  0  0  0  0
  9 10  2  0  0  0  0
 10 11  1  0  0  0  0
 10 12  1  0  0  0  0
 12 17  2  0  0  0  0
 12 13  1  0  0  0  0
 13 14  2  0  0  0  0
 13 48  1  0  0  0  0
 14 15  1  0  0  0  0
 14 22  1  0  0  0  0
 15 16  2  0  0  0  0
 15 49  1  0  0  0  0
 16 17  1  0  0  0  0
 16 50  1  0  0  0  0
 17 18  1  0  0  0  0
 18 19  1  0  0  0  0
 19 20  1  0  0  0  0
 19 51  1  0  0  0  0
 19 52  1  0  0  0  0
 20 21  1  0  0  0  0
 20 53  1  0  0  0  0
 20 54  1  0  0  0  0
 21 55  1  0  0  0  0
 21 56  1  0  0  0  0
 21 57  1  0  0  0  0
 22 23  2  0  0  0  0
 22 24  2  0  0  0  0
 22 25  1  0  0  0  0
 25 30  1  0  0  0  0
 25 26  1  0  0  0  0
 26 27  1  0  0  0  0
 26 58  1  0  0  0  0
 26 59  1  0  0  0  0
 27 28  1  0  0  0  0
 27 60  1  0  0  0  0
 27 61  1  0  0  0  0
 28 29  1  0  0  0  0
 28 31  1  0  0  0  0
 29 30  1  0  0  0  0
 29 62  1  0  0  0  0
 29 63  1  0  0  0  0
 30 64  1  0  0  0  0
 30 65  1  0  0  0  0
 31 32  1  0  0  0  0
 31 66  1  0  0  0  0
 31 67  1  0  0  0  0
 32 33  2  0  0  0  0
 32 34  1  0  0  0  0
 32 35  1  0  0  0  0
 35 36  1  0  0  0  0
 36 37  1  0  0  0  0
 36 68  1  0  0  0  0
 36 69  1  0  0  0  0
 37 70  1  0  0  0  0
 37 71  1  0  0  0  0
 37 72  1  0  0  0  0
 38 39  1  0  0  0  0
 38 40  1  0  0  0  0
 40 73  1  0  0  0  0
 40 74  1  0  0  0  0
 40 75  1  0  0  0  0
M  CHG  2   8  -1  34  -1
M  END
$$$$
CHEMBL245317
  -OEChem-07121202283D

 77 80  0     1  0  0  0  0  0999 V2000
   -0.0187    1.5258    0.0104 C   0  0  0  0  0  0  0  0  0  0  0  0
    0.0021   -0.0041    0.0020 C   0  0  0  0  0  0  0  0  0  0  0  0
   -1.4333   -0.5336    0.0129 C   0  0  0  0  0  0  0  0  0  0  0  0
   -1.4129   -2.0405    0.0046 C   0  0  0  0  0  0  0  0  0  0  0  0
   -1.4070   -2.8548   -1.1446 C   0  0  0  0  0  0  0  0  0  0  0  0
   -1.3861   -4.1841   -0.7032 C   0  0  0  0  0  0  0  0  0  0  0  0
   -1.3769   -5.2214   -1.6643 C   0  0  0  0  0  0  0  0  0  0  0  0
   -1.3591   -6.3907   -1.3206 O   0  0  0  0  0  0  0  0  0  0  0  0
   -1.3887   -4.8848   -2.9731 N   0  0  0  0  0  0  0  0  0  0  0  0
   -1.3827   -5.5793   -3.6502 H   0  0  0  0  0  0  0  0  0  0  0  0
   -1.4095   -3.5686   -3.3476 C   0  0  0  0  0  0  0  0  0  0  0  0
   -1.4171   -2.5966   -2.4679 N   0  0  0  0  0  0  0  0  0  0  0  0
   -1.4219   -3.2333   -4.7854 C   0  0  0  0  0  0  0  0  0  0  0  0
   -1.4183   -4.2493   -5.7432 C   0  0  0  0  0  0  0  0  0  0  0  0
   -1.4299   -3.9298   -7.0842 C   0  0  0  0  0  0  0  0  0  0  0  0
   -1.4448   -2.6046   -7.4863 C   0  0  0  0  0  0  0  0  0  0  0  0
   -1.4485   -1.5903   -6.5488 C   0  0  0  0  0  0  0  0  0  0  0  0
   -1.4433   -1.8942   -5.1961 C   0  0  0  0  0  0  0  0  0  0  0  0
   -1.4527   -0.8984   -4.2738 O   0  0  0  0  0  0  0  0  0  0  0  0
   -1.4745    0.4426   -4.7671 C   0  0  0  0  0  0  0  0  0  0  0  0
   -1.4823    1.4191   -3.5893 C   0  0  0  0  0  0  0  0  0  0  0  0
   -1.5057    2.8549   -4.1174 C   0  0  0  0  0  0  0  0  0  0  0  0
   -1.4253   -5.2129   -8.2917 S   0  0  0  0  0  0  0  0  0  0  0  0
   -0.8874   -4.6500   -9.4805 O   0  0  0  0  0  0  0  0  0  0  0  0
   -0.8594   -6.3568   -7.6667 O   0  0  0  0  0  0  0  0  0  0  0  0
   -3.0059   -5.5847   -8.6172 N   0  0  0  0  0  0  0  0  0  0  0  0
   -3.7080   -6.6149   -7.8397 C   0  0  0  0  0  0  0  0  0  0  0  0
   -5.0028   -6.0151   -7.2825 C   0  0  0  0  0  0  0  0  0  0  0  0
   -5.8239   -5.4268   -8.4322 C   0  0  0  0  0  0  0  0  0  0  0  0
   -5.0273   -4.3102   -9.1111 C   0  0  0  0  0  0  0  0  0  0  0  0
   -3.7346   -4.8864   -9.6849 C   0  0  0  0  0  0  0  0  0  0  0  0
   -7.1339   -4.8575   -7.8839 C   0  0  0  0  0  0  0  0  0  0  0  0
   -8.2935   -4.5671   -9.2603 P   0  0  1  0  0  0  0  0  0  0  0  0
   -7.6224   -3.6611  -10.3166 O   0  0  0  0  0  0  0  0  0  0  0  0
   -8.6737   -5.9177   -9.9071 O   0  5  0  0  0  0  0  0  0  0  0  0
   -9.6206   -3.8473   -8.7011 O   0  0  0  0  0  0  0  0  0  0  0  0
  -10.6762   -3.3929   -9.5504 C   0  0  0  0  0  0  0  0  0  0  0  0
  -11.7788   -2.7597   -8.6994 C   0  0  0  0  0  0  0  0  0  0  0  0
   -1.3799   -4.1501    0.6637 N   0  0  0  0  0  0  0  0  0  0  0  0
   -1.3920   -2.8068    1.0614 N   0  0  0  0  0  0  0  0  0  0  0  0
   -1.3598   -5.3128    1.5547 C   0  0  0  0  0  0  0  0  0  0  0  0
    1.0039    1.9031    0.0027 H   0  0  0  0  0  0  0  0  0  0  0  0
   -0.5459    1.8868   -0.8726 H   0  0  0  0  0  0  0  0  0  0  0  0
   -0.5289    1.8773    0.9072 H   0  0  0  0  0  0  0  0  0  0  0  0
    0.5123   -0.3556   -0.8948 H   0  0  0  0  0  0  0  0  0  0  0  0
    0.5293   -0.3651    0.8851 H   0  0  0  0  0  0  0  0  0  0  0  0
   -1.9435   -0.1821    0.9097 H   0  0  0  0  0  0  0  0  0  0  0  0
   -1.9605   -0.1726   -0.8702 H   0  0  0  0  0  0  0  0  0  0  0  0
   -1.4060   -5.2840   -5.4339 H   0  0  0  0  0  0  0  0  0  0  0  0
   -1.4531   -2.3629   -8.5389 H   0  0  0  0  0  0  0  0  0  0  0  0
   -1.4598   -0.5592   -6.8698 H   0  0  0  0  0  0  0  0  0  0  0  0
   -0.5902    0.6189   -5.3794 H   0  0  0  0  0  0  0  0  0  0  0  0
   -2.3699    0.5934   -5.3701 H   0  0  0  0  0  0  0  0  0  0  0  0
   -2.3667    1.2428   -2.9770 H   0  0  0  0  0  0  0  0  0  0  0  0
   -0.5869    1.2683   -2.9863 H   0  0  0  0  0  0  0  0  0  0  0  0
   -1.5112    3.5506   -3.2783 H   0  0  0  0  0  0  0  0  0  0  0  0
   -0.6213    3.0312   -4.7297 H   0  0  0  0  0  0  0  0  0  0  0  0
   -2.4011    3.0057   -4.7204 H   0  0  0  0  0  0  0  0  0  0  0  0
   -3.9451   -7.4611   -8.4845 H   0  0  0  0  0  0  0  0  0  0  0  0
   -3.0749   -6.9462   -7.0165 H   0  0  0  0  0  0  0  0  0  0  0  0
   -5.5800   -6.7943   -6.7848 H   0  0  0  0  0  0  0  0  0  0  0  0
   -4.7613   -5.2281   -6.5681 H   0  0  0  0  0  0  0  0  0  0  0  0
   -6.0440   -6.2091   -9.1587 H   0  0  0  0  0  0  0  0  0  0  0  0
   -5.6219   -3.8760   -9.9148 H   0  0  0  0  0  0  0  0  0  0  0  0
   -4.7855   -3.5393   -8.3794 H   0  0  0  0  0  0  0  0  0  0  0  0
   -3.1191   -4.0776  -10.0789 H   0  0  0  0  0  0  0  0  0  0  0  0
   -3.9739   -5.5885  -10.4836 H   0  0  0  0  0  0  0  0  0  0  0  0
   -7.5730   -5.5670   -7.1825 H   0  0  0  0  0  0  0  0  0  0  0  0
   -6.9348   -3.9162   -7.3718 H   0  0  0  0  0  0  0  0  0  0  0  0
  -10.2869   -2.6530  -10.2497 H   0  0  0  0  0  0  0  0  0  0  0  0
  -11.0852   -4.2373  -10.1052 H   0  0  0  0  0  0  0  0  0  0  0  0
  -12.1681   -3.4996   -8.0000 H   0  0  0  0  0  0  0  0  0  0  0  0
  -11.3698   -1.9153   -8.1446 H   0  0  0  0  0  0  0  0  0  0  0  0
  -12.5839   -2.4131   -9.3472 H   0  0  0  0  0  0  0  0  0  0  0  0
   -0.3273   -5.5873    1.7707 H   0  0  0  0  0  0  0  0  0  0  0  0
   -1.8725   -5.0668    2.4846 H   0  0  0  0  0  0  0  0  0  0  0  0
   -1.8648   -6.1494    1.0718 H   0  0  0  0  0  0  0  0  0  0  0  0
  1  2  1  0  0  0  0
  1 42  1  0  0  0  0
  1 43  1  0  0  0  0
  1 44  1  0  0  0  0
  2  3  1  0  0  0  0
  2 45  1  0  0  0  0
  2 46  1  0  0  0  0
  3  4  1  0  0  0  0
  3 47  1  0  0  0  0
  3 48  1  0  0  0  0
  4 40  2  0  0  0  0
  4  5  1  0  0  0  0
  5 12  1  0  0  0  0
  5  6  2  0  0  0  0
  6  7  1  0  0  0  0
  6 39  1  0  0  0  0
  7  8  2  0  0  0  0
  7  9  1  0  0  0  0
  9 10  1  0  0  0  0
  9 11  1  0  0  0  0
 11 12  2  0  0  0  0
 11 13  1  0  0  0  0
 13 18  2  0  0  0  0
 13 14  1  0  0  0  0
 14 15  2  0  0  0  0
 14 49  1  0  0  0  0
 15 16  1  0  0  0  0
 15 23  1  0  0  0  0
 16 17  2  0  0  0  0
 16 50  1  0  0  0  0
 17 18  1  0  0  0  0
 17 51  1  0  0  0  0
 18 19  1  0  0  0  0
 19 20  1  0  0  0  0
 20 21  1  0  0  0  0
 20 52  1  0  0  0  0
 20 53  1  0  0  0  0
 21 22  1  0  0  0  0
 21 54  1  0  0  0  0
 21 55  1  0  0  0  0
 22 56  1  0  0  0  0
 22 57  1  0  0  0  0
 22 58  1  0  0  0  0
 23 24  2  0  0  0  0
 23 25  2  0  0  0  0
 23 26  1  0  0  0  0
 26 31  1  0  0  0  0
 26 27  1  0  0  0  0
 27 28  1  0  0  0  0
 27 59  1  0  0  0  0
 27 60  1  0  0  0  0
 28 29  1  0  0  0  0
 28 61  1  0  0  0  0
 28 62  1  0  0  0  0
 29 30  1  0  0  0  0
 29 32  1  0  0  0  0
 29 63  1  0  0  0  0
 30 31  1  0  0  0  0
 30 64  1  0  0  0  0
 30 65  1  0  0  0  0
 31 66  1  0  0  0  0
 31 67  1  0  0  0  0
 32 33  1  0  0  0  0
 32 68  1  0  0  0  0
 32 69  1  0  0  0  0
 33 34  2  0  0  0  0
 33 35  1  0  0  0  0
 33 36  1  0  0  0  0
 36 37  1  0  0  0  0
 37 38  1  0  0  0  0
 37 70  1  0  0  0  0
 37 71  1  0  0  0  0
 38 72  1  0  0  0  0
 38 73  1  0  0  0  0
 38 74  1  0  0  0  0
 39 40  1  0  0  0  0
 39 41  1  0  0  0  0
 41 75  1  0  0  0  0
 41 76  1  0  0  0  0
 41 77  1  0  0  0  0
M  CHG  1  35  -1
M  END
$$$$
CHEMBL245317
  -OEChem-07121202283D

 77 80  0     1  0  0  0  0  0999 V2000
   -0.0187    1.5258    0.0104 C   0  0  0  0  0  0  0  0  0  0  0  0
    0.0021   -0.0041    0.0020 C   0  0  0  0  0  0  0  0  0  0  0  0
    0.7182   -0.4975   -1.2568 C   0  0  0  0  0  0  0  0  0  0  0  0
    0.7386   -2.0043   -1.2651 C   0  0  0  0  0  0  0  0  0  0  0  0
    1.7371   -2.8090   -0.7054 C   0  0  0  0  0  0  0  0  0  0  0  0
    1.3740   -4.1350   -0.9304 C   0  0  0  0  0  0  0  0  0  0  0  0
    2.2608   -5.1909   -0.4384 C   0  0  0  0  0  0  0  0  0  0  0  0
    1.9844   -6.3672   -0.6123 O   0  0  0  0  0  0  0  0  0  0  0  0
    3.3842   -4.8398    0.2075 N   0  0  0  0  0  0  0  0  0  0  0  0
    3.6977   -3.5767    0.4033 C   0  0  0  0  0  0  0  0  0  0  0  0
    2.9154   -2.5523   -0.0295 N   0  0  0  0  0  0  0  0  0  0  0  0
    4.9471   -3.2598    1.1207 C   0  0  0  0  0  0  0  0  0  0  0  0
    5.3072   -1.9297    1.3507 C   0  0  0  0  0  0  0  0  0  0  0  0
    6.4754   -1.6404    2.0219 C   0  0  0  0  0  0  0  0  0  0  0  0
    7.2958   -2.6630    2.4697 C   0  0  0  0  0  0  0  0  0  0  0  0
    6.9520   -3.9820    2.2486 C   0  0  0  0  0  0  0  0  0  0  0  0
    5.7769   -4.2915    1.5805 C   0  0  0  0  0  0  0  0  0  0  0  0
    5.4349   -5.5872    1.3679 O   0  0  0  0  0  0  0  0  0  0  0  0
    6.3296   -6.5843    1.8652 C   0  0  0  0  0  0  0  0  0  0  0  0
    5.7806   -7.9733    1.5332 C   0  0  0  0  0  0  0  0  0  0  0  0
    6.7385   -9.0409    2.0656 C   0  0  0  0  0  0  0  0  0  0  0  0
    6.9282    0.0377    2.3112 S   0  0  0  0  0  0  0  0  0  0  0  0
    8.3389    0.0542    2.4813 O   0  0  0  0  0  0  0  0  0  0  0  0
    6.2716    0.8126    1.3174 O   0  0  0  0  0  0  0  0  0  0  0  0
    6.2708    0.4783    3.7659 N   0  0  0  0  0  0  0  0  0  0  0  0
    4.9220    1.0569    3.8332 C   0  0  0  0  0  0  0  0  0  0  0  0
    4.0873    0.2470    4.8304 C   0  0  0  0  0  0  0  0  0  0  0  0
    4.8163    0.1938    6.1749 C   0  0  0  0  0  0  0  0  0  0  0  0
    6.1672   -0.5032    5.9975 C   0  0  0  0  0  0  0  0  0  0  0  0
    7.0230    0.2926    5.0142 C   0  0  0  0  0  0  0  0  0  0  0  0
    3.9694   -0.5851    7.1834 C   0  0  0  0  0  0  0  0  0  0  0  0
    4.5963   -0.2795    8.8678 P   0  0  1  0  0  0  0  0  0  0  0  0
    6.1006   -0.6266    8.9283 O   0  0  0  0  0  0  0  0  0  0  0  0
    4.3963    1.2092    9.2295 O   0  5  0  0  0  0  0  0  0  0  0  0
    3.7907   -1.1992    9.9153 O   0  0  0  0  0  0  0  0  0  0  0  0
    4.1185   -1.2663   11.3046 C   0  0  0  0  0  0  0  0  0  0  0  0
    3.1600   -2.2288   12.0087 C   0  0  0  0  0  0  0  0  0  0  0  0
    0.1890   -4.1166   -1.6070 N   0  0  0  0  0  0  0  0  0  0  0  0
   -0.1769   -2.7759   -1.7917 N   0  0  0  0  0  0  0  0  0  0  0  0
   -0.5677   -5.2881   -2.0556 C   0  0  0  0  0  0  0  0  0  0  0  0
    1.0039    1.9031    0.0027 H   0  0  0  0  0  0  0  0  0  0  0  0
   -0.5459    1.8868   -0.8726 H   0  0  0  0  0  0  0  0  0  0  0  0
   -0.5289    1.8773    0.9072 H   0  0  0  0  0  0  0  0  0  0  0  0
    0.5293   -0.3651    0.8851 H   0  0  0  0  0  0  0  0  0  0  0  0
   -1.0205   -0.3814    0.0098 H   0  0  0  0  0  0  0  0  0  0  0  0
    0.1910   -0.1364   -2.1398 H   0  0  0  0  0  0  0  0  0  0  0  0
    1.7408   -0.1202   -1.2645 H   0  0  0  0  0  0  0  0  0  0  0  0
    4.6710   -1.1293    1.0027 H   0  0  0  0  0  0  0  0  0  0  0  0
    8.2097   -2.4272    2.9946 H   0  0  0  0  0  0  0  0  0  0  0  0
    7.5970   -4.7736    2.6002 H   0  0  0  0  0  0  0  0  0  0  0  0
    7.3075   -6.4595    1.4002 H   0  0  0  0  0  0  0  0  0  0  0  0
    6.4252   -6.4802    2.9460 H   0  0  0  0  0  0  0  0  0  0  0  0
    4.8027   -8.0982    1.9981 H   0  0  0  0  0  0  0  0  0  0  0  0
    5.6850   -8.0774    0.4524 H   0  0  0  0  0  0  0  0  0  0  0  0
    6.8341   -8.9368    3.1464 H   0  0  0  0  0  0  0  0  0  0  0  0
    6.3474  -10.0305    1.8291 H   0  0  0  0  0  0  0  0  0  0  0  0
    7.7164   -8.9161    1.6007 H   0  0  0  0  0  0  0  0  0  0  0  0
    4.9850    2.0929    4.1661 H   0  0  0  0  0  0  0  0  0  0  0  0
    4.4568    1.0150    2.8484 H   0  0  0  0  0  0  0  0  0  0  0  0
    3.1154    0.7226    4.9620 H   0  0  0  0  0  0  0  0  0  0  0  0
    3.9490   -0.7655    4.4512 H   0  0  0  0  0  0  0  0  0  0  0  0
    4.9762    1.2077    6.5417 H   0  0  0  0  0  0  0  0  0  0  0  0
    6.6756   -0.5616    6.9599 H   0  0  0  0  0  0  0  0  0  0  0  0
    6.0093   -1.5086    5.6073 H   0  0  0  0  0  0  0  0  0  0  0  0
    7.9436   -0.2535    4.8084 H   0  0  0  0  0  0  0  0  0  0  0  0
    7.2611    1.2649    5.4455 H   0  0  0  0  0  0  0  0  0  0  0  0
    2.9320   -0.2572    7.1168 H   0  0  0  0  0  0  0  0  0  0  0  0
    4.0287   -1.6506    6.9615 H   0  0  0  0  0  0  0  0  0  0  0  0
    5.1418   -1.6237   11.4196 H   0  0  0  0  0  0  0  0  0  0  0  0
    4.0280   -0.2745   11.7476 H   0  0  0  0  0  0  0  0  0  0  0  0
    2.1367   -1.8714   11.8937 H   0  0  0  0  0  0  0  0  0  0  0  0
    3.2504   -3.2206   11.5657 H   0  0  0  0  0  0  0  0  0  0  0  0
    3.4100   -2.2800   13.0684 H   0  0  0  0  0  0  0  0  0  0  0  0
   -1.2651   -5.5910   -1.2745 H   0  0  0  0  0  0  0  0  0  0  0  0
   -1.1218   -5.0381   -2.9604 H   0  0  0  0  0  0  0  0  0  0  0  0
    0.1207   -6.1067   -2.2656 H   0  0  0  0  0  0  0  0  0  0  0  0
    3.1857   -1.6357    0.1370 H   0  0  0  0  0  0  0  0  0  0  0  0
  1  2  1  0  0  0  0
  1 41  1  0  0  0  0
  1 42  1  0  0  0  0
  1 43  1  0  0  0  0
  2  3  1  0  0  0  0
  2 44  1  0  0  0  0
  2 45  1  0  0  0  0
  3  4  1  0  0  0  0
  3 46  1  0  0  0  0
  3 47  1  0  0  0  0
  4 39  2  0  0  0  0
  4  5  1  0  0  0  0
  5 11  1  0  0  0  0
  5  6  2  0  0  0  0
  6  7  1  0  0  0  0
  6 38  1  0  0  0  0
  7  8  2  0  0  0  0
  7  9  1  0  0  0  0
  9 10  2  0  0  0  0
 10 11  1  0  0  0  0
 10 12  1  0  0  0  0
 11 77  1  0  0  0  0
 12 17  2  0  0  0  0
 12 13  1  0  0  0  0
 13 14  2  0  0  0  0
 13 48  1  0  0  0  0
 14 15  1  0  0  0  0
 14 22  1  0  0  0  0
 15 16  2  0  0  0  0
 15 49  1  0  0  0  0
 16 17  1  0  0  0  0
 16 50  1  0  0  0  0
 17 18  1  0  0  0  0
 18 19  1  0  0  0  0
 19 20  1  0  0  0  0
 19 51  1  0  0  0  0
 19 52  1  0  0  0  0
 20 21  1  0  0  0  0
 20 53  1  0  0  0  0
 20 54  1  0  0  0  0
 21 55  1  0  0  0  0
 21 56  1  0  0  0  0
 21 57  1  0  0  0  0
 22 23  2  0  0  0  0
 22 24  2  0  0  0  0
 22 25  1  0  0  0  0
 25 30  1  0  0  0  0
 25 26  1  0  0  0  0
 26 27  1  0  0  0  0
 26 58  1  0  0  0  0
 26 59  1  0  0  0  0
 27 28  1  0  0  0  0
 27 60  1  0  0  0  0
 27 61  1  0  0  0  0
 28 29  1  0  0  0  0
 28 31  1  0  0  0  0
 28 62  1  0  0  0  0
 29 30  1  0  0  0  0
 29 63  1  0  0  0  0
 29 64  1  0  0  0  0
 30 65  1  0  0  0  0
 30 66  1  0  0  0  0
 31 32  1  0  0  0  0
 31 67  1  0  0  0  0
 31 68  1  0  0  0  0
 32 33  2  0  0  0  0
 32 34  1  0  0  0  0
 32 35  1  0  0  0  0
 35 36  1  0  0  0  0
 36 37  1  0  0  0  0
 36 69  1  0  0  0  0
 36 70  1  0  0  0  0
 37 71  1  0  0  0  0
 37 72  1  0  0  0  0
 37 73  1  0  0  0  0
 38 39  1  0  0  0  0
 38 40  1  0  0  0  0
 40 74  1  0  0  0  0
 40 75  1  0  0  0  0
 40 76  1  0  0  0  0
M  CHG  1  34  -1
M  END
$$$$
CHEMBL245317
  -OEChem-07121202283D

 76 79  0     1  0  0  0  0  0999 V2000
   -0.0187    1.5258    0.0104 C   0  0  0  0  0  0  0  0  0  0  0  0
    0.0021   -0.0041    0.0020 C   0  0  0  0  0  0  0  0  0  0  0  0
    0.7182   -0.4975   -1.2568 C   0  0  0  0  0  0  0  0  0  0  0  0
    0.7386   -2.0043   -1.2651 C   0  0  0  0  0  0  0  0  0  0  0  0
    1.7462   -2.8166   -0.7003 C   0  0  0  0  0  0  0  0  0  0  0  0
    1.3706   -4.1533   -0.9326 C   0  0  0  0  0  0  0  0  0  0  0  0
    2.2091   -5.1744   -0.4677 C   0  0  0  0  0  0  0  0  0  0  0  0
    1.8896   -6.4757   -0.6680 O   0  5  0  0  0  0  0  0  0  0  0  0
    3.3211   -4.8425    0.1714 N   0  0  0  0  0  0  0  0  0  0  0  0
    3.6455   -3.5680    0.3736 C   0  0  0  0  0  0  0  0  0  0  0  0
    2.8863   -2.5711   -0.0459 N   0  0  0  0  0  0  0  0  0  0  0  0
    4.9018   -3.2556    1.0949 C   0  0  0  0  0  0  0  0  0  0  0  0
    5.2652   -1.9301    1.3266 C   0  0  0  0  0  0  0  0  0  0  0  0
    6.4358   -1.6447    1.9985 C   0  0  0  0  0  0  0  0  0  0  0  0
    7.2520   -2.6702    2.4440 C   0  0  0  0  0  0  0  0  0  0  0  0
    6.9019   -3.9875    2.2200 C   0  0  0  0  0  0  0  0  0  0  0  0
    5.7257   -4.2895    1.5513 C   0  0  0  0  0  0  0  0  0  0  0  0
    5.3775   -5.5841    1.3354 O   0  0  0  0  0  0  0  0  0  0  0  0
    6.2678   -6.5865    1.8301 C   0  0  0  0  0  0  0  0  0  0  0  0
    5.7126   -7.9722    1.4947 C   0  0  0  0  0  0  0  0  0  0  0  0
    6.6657   -9.0454    2.0244 C   0  0  0  0  0  0  0  0  0  0  0  0
    6.8940    0.0315    2.2902 S   0  0  0  0  0  0  0  0  0  0  0  0
    8.3048    0.0432    2.4598 O   0  0  0  0  0  0  0  0  0  0  0  0
    6.2395    0.8100    1.2978 O   0  0  0  0  0  0  0  0  0  0  0  0
    6.2385    0.4720    3.7457 N   0  0  0  0  0  0  0  0  0  0  0  0
    4.8916    1.0548    3.8144 C   0  0  0  0  0  0  0  0  0  0  0  0
    4.0547    0.2462    4.8107 C   0  0  0  0  0  0  0  0  0  0  0  0
    4.7840    0.1886    6.1549 C   0  0  0  0  0  0  0  0  0  0  0  0
    6.1325   -0.5125    5.9759 C   0  0  0  0  0  0  0  0  0  0  0  0
    6.9905    0.2820    4.9935 C   0  0  0  0  0  0  0  0  0  0  0  0
    3.9349   -0.5891    7.1625 C   0  0  0  0  0  0  0  0  0  0  0  0
    4.5634   -0.2880    8.8471 P   0  0  1  0  0  0  0  0  0  0  0  0
    6.0666   -0.6400    8.9066 O   0  0  0  0  0  0  0  0  0  0  0  0
    4.3683    1.2008    9.2111 O   0  5  0  0  0  0  0  0  0  0  0  0
    3.7552   -1.2067    9.8935 O   0  0  0  0  0  0  0  0  0  0  0  0
    4.0833   -1.2770   11.2826 C   0  0  0  0  0  0  0  0  0  0  0  0
    3.1219   -2.2374   11.9857 C   0  0  0  0  0  0  0  0  0  0  0  0
    0.1819   -4.1166   -1.6111 N   0  0  0  0  0  0  0  0  0  0  0  0
   -0.1735   -2.7733   -1.7897 N   0  0  0  0  0  0  0  0  0  0  0  0
   -0.5863   -5.2783   -2.0657 C   0  0  0  0  0  0  0  0  0  0  0  0
    1.0039    1.9031    0.0027 H   0  0  0  0  0  0  0  0  0  0  0  0
   -0.5459    1.8868   -0.8726 H   0  0  0  0  0  0  0  0  0  0  0  0
   -0.5289    1.8773    0.9072 H   0  0  0  0  0  0  0  0  0  0  0  0
    0.5293   -0.3651    0.8851 H   0  0  0  0  0  0  0  0  0  0  0  0
   -1.0205   -0.3814    0.0098 H   0  0  0  0  0  0  0  0  0  0  0  0
    0.1910   -0.1364   -2.1398 H   0  0  0  0  0  0  0  0  0  0  0  0
    1.7408   -0.1202   -1.2645 H   0  0  0  0  0  0  0  0  0  0  0  0
    4.6312   -1.1273    0.9803 H   0  0  0  0  0  0  0  0  0  0  0  0
    8.1671   -2.4391    2.9690 H   0  0  0  0  0  0  0  0  0  0  0  0
    7.5432   -4.7831    2.5697 H   0  0  0  0  0  0  0  0  0  0  0  0
    7.2462   -6.4649    1.3653 H   0  0  0  0  0  0  0  0  0  0  0  0
    6.3640   -6.4855    2.9111 H   0  0  0  0  0  0  0  0  0  0  0  0
    4.7342   -8.0938    1.9595 H   0  0  0  0  0  0  0  0  0  0  0  0
    5.6163   -8.0732    0.4137 H   0  0  0  0  0  0  0  0  0  0  0  0
    6.2702  -10.0326    1.7855 H   0  0  0  0  0  0  0  0  0  0  0  0
    7.6441   -8.9238    1.5596 H   0  0  0  0  0  0  0  0  0  0  0  0
    6.7620   -8.9444    3.1055 H   0  0  0  0  0  0  0  0  0  0  0  0
    4.9580    2.0902    4.1488 H   0  0  0  0  0  0  0  0  0  0  0  0
    4.4259    1.0159    2.8297 H   0  0  0  0  0  0  0  0  0  0  0  0
    3.0843    0.7246    4.9434 H   0  0  0  0  0  0  0  0  0  0  0  0
    3.9130   -0.7653    4.4300 H   0  0  0  0  0  0  0  0  0  0  0  0
    4.9472    1.2014    6.5231 H   0  0  0  0  0  0  0  0  0  0  0  0
    6.6411   -0.5739    6.9381 H   0  0  0  0  0  0  0  0  0  0  0  0
    5.9713   -1.5168    5.5843 H   0  0  0  0  0  0  0  0  0  0  0  0
    7.9093   -0.2667    4.7865 H   0  0  0  0  0  0  0  0  0  0  0  0
    7.2320    1.2529    5.4262 H   0  0  0  0  0  0  0  0  0  0  0  0
    2.8986   -0.2578    7.0967 H   0  0  0  0  0  0  0  0  0  0  0  0
    3.9907   -1.6544    6.9390 H   0  0  0  0  0  0  0  0  0  0  0  0
    5.1055   -1.6378   11.3967 H   0  0  0  0  0  0  0  0  0  0  0  0
    3.9961   -0.2855   11.7271 H   0  0  0  0  0  0  0  0  0  0  0  0
    2.0997   -1.8766   11.8716 H   0  0  0  0  0  0  0  0  0  0  0  0
    3.2091   -3.2288   11.5411 H   0  0  0  0  0  0  0  0  0  0  0  0
    3.3722   -2.2910   13.0452 H   0  0  0  0  0  0  0  0  0  0  0  0
   -1.2865   -5.5786   -1.2862 H   0  0  0  0  0  0  0  0  0  0  0  0
   -1.1380   -5.0182   -2.9691 H   0  0  0  0  0  0  0  0  0  0  0  0
    0.0940   -6.1025   -2.2801 H   0  0  0  0  0  0  0  0  0  0  0  0
  1  2  1  0  0  0  0
  1 41  1  0  0  0  0
  1 42  1  0  0  0  0
  1 43  1  0  0  0  0
  2  3  1  0  0  0  0
  2 44  1  0  0  0  0
  2 45  1  0  0  0  0
  3  4  1  0  0  0  0
  3 46  1  0  0  0  0
  3 47  1  0  0  0  0
  4 39  2  0  0  0  0
  4  5  1  0  0  0  0
  5 11  2  0  0  0  0
  5  6  1  0  0  0  0
  6  7  2  0  0  0  0
  6 38  1  0  0  0  0
  7  8  1  0  0  0  0
  7  9  1  0  0  0  0
  9 10  2  0  0  0  0
 10 11  1  0  0  0  0
 10 12  1  0  0  0  0
 12 17  2  0  0  0  0
 12 13  1  0  0  0  0
 13 14  2  0  0  0  0
 13 48  1  0  0  0  0
 14 15  1  0  0  0  0
 14 22  1  0  0  0  0
 15 16  2  0  0  0  0
 15 49  1  0  0  0  0
 16 17  1  0  0  0  0
 16 50  1  0  0  0  0
 17 18  1  0  0  0  0
 18 19  1  0  0  0  0
 19 20  1  0  0  0  0
 19 51  1  0  0  0  0
 19 52  1  0  0  0  0
 20 21  1  0  0  0  0
 20 53  1  0  0  0  0
 20 54  1  0  0  0  0
 21 55  1  0  0  0  0
 21 56  1  0  0  0  0
 21 57  1  0  0  0  0
 22 23  2  0  0  0  0
 22 24  2  0  0  0  0
 22 25  1  0  0  0  0
 25 30  1  0  0  0  0
 25 26  1  0  0  0  0
 26 27  1  0  0  0  0
 26 58  1  0  0  0  0
 26 59  1  0  0  0  0
 27 28  1  0  0  0  0
 27 60  1  0  0  0  0
 27 61  1  0  0  0  0
 28 29  1  0  0  0  0
 28 31  1  0  0  0  0
 28 62  1  0  0  0  0
 29 30  1  0  0  0  0
 29 63  1  0  0  0  0
 29 64  1  0  0  0  0
 30 65  1  0  0  0  0
 30 66  1  0  0  0  0
 31 32  1  0  0  0  0
 31 67  1  0  0  0  0
 31 68  1  0  0  0  0
 32 33  2  0  0  0  0
 32 34  1  0  0  0  0
 32 35  1  0  0  0  0
 35 36  1  0  0  0  0
 36 37  1  0  0  0  0
 36 69  1  0  0  0  0
 36 70  1  0  0  0  0
 37 71  1  0  0  0  0
 37 72  1  0  0  0  0
 37 73  1  0  0  0  0
 38 39  1  0  0  0  0
 38 40  1  0  0  0  0
 40 74  1  0  0  0  0
 40 75  1  0  0  0  0
 40 76  1  0  0  0  0
M  CHG  2   8  -1  34  -1
M  END
$$$$
CHEMBL245317
  -OEChem-07121202283D

 77 80  0     1  0  0  0  0  0999 V2000
   -0.0187    1.5258    0.0104 C   0  0  0  0  0  0  0  0  0  0  0  0
    0.0021   -0.0041    0.0020 C   0  0  0  0  0  0  0  0  0  0  0  0
   -1.4333   -0.5336    0.0129 C   0  0  0  0  0  0  0  0  0  0  0  0
   -1.4129   -2.0405    0.0046 C   0  0  0  0  0  0  0  0  0  0  0  0
   -1.4070   -2.8548   -1.1446 C   0  0  0  0  0  0  0  0  0  0  0  0
   -1.3861   -4.1841   -0.7032 C   0  0  0  0  0  0  0  0  0  0  0  0
   -1.3769   -5.2214   -1.6643 C   0  0  0  0  0  0  0  0  0  0  0  0
   -1.3591   -6.3907   -1.3206 O   0  0  0  0  0  0  0  0  0  0  0  0
   -1.3887   -4.8848   -2.9731 N   0  0  0  0  0  0  0  0  0  0  0  0
   -1.3827   -5.5793   -3.6502 H   0  0  0  0  0  0  0  0  0  0  0  0
   -1.4095   -3.5686   -3.3476 C   0  0  0  0  0  0  0  0  0  0  0  0
   -1.4171   -2.5966   -2.4679 N   0  0  0  0  0  0  0  0  0  0  0  0
   -1.4219   -3.2333   -4.7854 C   0  0  0  0  0  0  0  0  0  0  0  0
   -1.4183   -4.2493   -5.7432 C   0  0  0  0  0  0  0  0  0  0  0  0
   -1.4299   -3.9298   -7.0842 C   0  0  0  0  0  0  0  0  0  0  0  0
   -1.4448   -2.6046   -7.4863 C   0  0  0  0  0  0  0  0  0  0  0  0
   -1.4485   -1.5903   -6.5488 C   0  0  0  0  0  0  0  0  0  0  0  0
   -1.4433   -1.8942   -5.1961 C   0  0  0  0  0  0  0  0  0  0  0  0
   -1.4527   -0.8984   -4.2738 O   0  0  0  0  0  0  0  0  0  0  0  0
   -1.4745    0.4426   -4.7671 C   0  0  0  0  0  0  0  0  0  0  0  0
   -1.4823    1.4191   -3.5893 C   0  0  0  0  0  0  0  0  0  0  0  0
   -1.5057    2.8549   -4.1174 C   0  0  0  0  0  0  0  0  0  0  0  0
   -1.4253   -5.2129   -8.2917 S   0  0  0  0  0  0  0  0  0  0  0  0
   -0.8874   -4.6500   -9.4805 O   0  0  0  0  0  0  0  0  0  0  0  0
   -0.8594   -6.3568   -7.6667 O   0  0  0  0  0  0  0  0  0  0  0  0
   -3.0059   -5.5847   -8.6172 N   0  0  0  0  0  0  0  0  0  0  0  0
   -3.7080   -6.6149   -7.8397 C   0  0  0  0  0  0  0  0  0  0  0  0
   -5.0028   -6.0151   -7.2825 C   0  0  0  0  0  0  0  0  0  0  0  0
   -5.8239   -5.4268   -8.4322 C   0  0  0  0  0  0  0  0  0  0  0  0
   -5.0273   -4.3102   -9.1111 C   0  0  0  0  0  0  0  0  0  0  0  0
   -3.7346   -4.8864   -9.6849 C   0  0  0  0  0  0  0  0  0  0  0  0
   -7.1339   -4.8575   -7.8839 C   0  0  0  0  0  0  0  0  0  0  0  0
   -8.2935   -4.5671   -9.2603 P   0  0  1  0  0  0  0  0  0  0  0  0
   -7.6224   -3.6611  -10.3166 O   0  0  0  0  0  0  0  0  0  0  0  0
   -8.6737   -5.9177   -9.9071 O   0  5  0  0  0  0  0  0  0  0  0  0
   -9.6206   -3.8473   -8.7011 O   0  0  0  0  0  0  0  0  0  0  0  0
  -10.6762   -3.3929   -9.5504 C   0  0  0  0  0  0  0  0  0  0  0  0
  -11.7788   -2.7597   -8.6994 C   0  0  0  0  0  0  0  0  0  0  0  0
   -1.3799   -4.1501    0.6637 N   0  0  0  0  0  0  0  0  0  0  0  0
   -1.3920   -2.8068    1.0614 N   0  0  0  0  0  0  0  0  0  0  0  0
   -1.3598   -5.3128    1.5547 C   0  0  0  0  0  0  0  0  0  0  0  0
    1.0039    1.9031    0.0027 H   0  0  0  0  0  0  0  0  0  0  0  0
   -0.5459    1.8868   -0.8726 H   0  0  0  0  0  0  0  0  0  0  0  0
   -0.5289    1.8773    0.9072 H   0  0  0  0  0  0  0  0  0  0  0  0
    0.5123   -0.3556   -0.8948 H   0  0  0  0  0  0  0  0  0  0  0  0
    0.5293   -0.3651    0.8851 H   0  0  0  0  0  0  0  0  0  0  0  0
   -1.9435   -0.1821    0.9097 H   0  0  0  0  0  0  0  0  0  0  0  0
   -1.9605   -0.1726   -0.8702 H   0  0  0  0  0  0  0  0  0  0  0  0
   -1.4060   -5.2840   -5.4339 H   0  0  0  0  0  0  0  0  0  0  0  0
   -1.4531   -2.3629   -8.5389 H   0  0  0  0  0  0  0  0  0  0  0  0
   -1.4598   -0.5592   -6.8698 H   0  0  0  0  0  0  0  0  0  0  0  0
   -0.5902    0.6189   -5.3794 H   0  0  0  0  0  0  0  0  0  0  0  0
   -2.3699    0.5934   -5.3701 H   0  0  0  0  0  0  0  0  0  0  0  0
   -2.3667    1.2428   -2.9770 H   0  0  0  0  0  0  0  0  0  0  0  0
   -0.5869    1.2683   -2.9863 H   0  0  0  0  0  0  0  0  0  0  0  0
   -1.5112    3.5506   -3.2783 H   0  0  0  0  0  0  0  0  0  0  0  0
   -0.6213    3.0312   -4.7297 H   0  0  0  0  0  0  0  0  0  0  0  0
   -2.4011    3.0057   -4.7204 H   0  0  0  0  0  0  0  0  0  0  0  0
   -3.9451   -7.4611   -8.4845 H   0  0  0  0  0  0  0  0  0  0  0  0
   -3.0749   -6.9462   -7.0165 H   0  0  0  0  0  0  0  0  0  0  0  0
   -5.5800   -6.7943   -6.7848 H   0  0  0  0  0  0  0  0  0  0  0  0
   -4.7613   -5.2281   -6.5681 H   0  0  0  0  0  0  0  0  0  0  0  0
   -6.0440   -6.2091   -9.1587 H   0  0  0  0  0  0  0  0  0  0  0  0
   -5.6219   -3.8760   -9.9148 H   0  0  0  0  0  0  0  0  0  0  0  0
   -4.7855   -3.5393   -8.3794 H   0  0  0  0  0  0  0  0  0  0  0  0
   -3.1191   -4.0776  -10.0789 H   0  0  0  0  0  0  0  0  0  0  0  0
   -3.9739   -5.5885  -10.4836 H   0  0  0  0  0  0  0  0  0  0  0  0
   -7.5730   -5.5670   -7.1825 H   0  0  0  0  0  0  0  0  0  0  0  0
   -6.9348   -3.9162   -7.3718 H   0  0  0  0  0  0  0  0  0  0  0  0
  -10.2869   -2.6530  -10.2497 H   0  0  0  0  0  0  0  0  0  0  0  0
  -11.0852   -4.2373  -10.1052 H   0  0  0  0  0  0  0  0  0  0  0  0
  -12.1681   -3.4996   -8.0000 H   0  0  0  0  0  0  0  0  0  0  0  0
  -11.3698   -1.9153   -8.1446 H   0  0  0  0  0  0  0  0  0  0  0  0
  -12.5839   -2.4131   -9.3472 H   0  0  0  0  0  0  0  0  0  0  0  0
   -0.3273   -5.5873    1.7707 H   0  0  0  0  0  0  0  0  0  0  0  0
   -1.8725   -5.0668    2.4846 H   0  0  0  0  0  0  0  0  0  0  0  0
   -1.8648   -6.1494    1.0718 H   0  0  0  0  0  0  0  0  0  0  0  0
  1  2  1  0  0  0  0
  1 42  1  0  0  0  0
  1 43  1  0  0  0  0
  1 44  1  0  0  0  0
  2  3  1  0  0  0  0
  2 45  1  0  0  0  0
  2 46  1  0  0  0  0
  3  4  1  0  0  0  0
  3 47  1  0  0  0  0
  3 48  1  0  0  0  0
  4 40  2  0  0  0  0
  4  5  1  0  0  0  0
  5 12  1  0  0  0  0
  5  6  2  0  0  0  0
  6  7  1  0  0  0  0
  6 39  1  0  0  0  0
  7  8  2  0  0  0  0
  7  9  1  0  0  0  0
  9 10  1  0  0  0  0
  9 11  1  0  0  0  0
 11 12  2  0  0  0  0
 11 13  1  0  0  0  0
 13 18  2  0  0  0  0
 13 14  1  0  0  0  0
 14 15  2  0  0  0  0
 14 49  1  0  0  0  0
 15 16  1  0  0  0  0
 15 23  1  0  0  0  0
 16 17  2  0  0  0  0
 16 50  1  0  0  0  0
 17 18  1  0  0  0  0
 17 51  1  0  0  0  0
 18 19  1  0  0  0  0
 19 20  1  0  0  0  0
 20 21  1  0  0  0  0
 20 52  1  0  0  0  0
 20 53  1  0  0  0  0
 21 22  1  0  0  0  0
 21 54  1  0  0  0  0
 21 55  1  0  0  0  0
 22 56  1  0  0  0  0
 22 57  1  0  0  0  0
 22 58  1  0  0  0  0
 23 24  2  0  0  0  0
 23 25  2  0  0  0  0
 23 26  1  0  0  0  0
 26 31  1  0  0  0  0
 26 27  1  0  0  0  0
 27 28  1  0  0  0  0
 27 59  1  0  0  0  0
 27 60  1  0  0  0  0
 28 29  1  0  0  0  0
 28 61  1  0  0  0  0
 28 62  1  0  0  0  0
 29 30  1  0  0  0  0
 29 32  1  0  0  0  0
 29 63  1  0  0  0  0
 30 31  1  0  0  0  0
 30 64  1  0  0  0  0
 30 65  1  0  0  0  0
 31 66  1  0  0  0  0
 31 67  1  0  0  0  0
 32 33  1  0  0  0  0
 32 68  1  0  0  0  0
 32 69  1  0  0  0  0
 33 34  2  0  0  0  0
 33 35  1  0  0  0  0
 33 36  1  0  0  0  0
 36 37  1  0  0  0  0
 37 38  1  0  0  0  0
 37 70  1  0  0  0  0
 37 71  1  0  0  0  0
 38 72  1  0  0  0  0
 38 73  1  0  0  0  0
 38 74  1  0  0  0  0
 39 40  1  0  0  0  0
 39 41  1  0  0  0  0
 41 75  1  0  0  0  0
 41 76  1  0  0  0  0
 41 77  1  0  0  0  0
M  CHG  1  35  -1
M  END
$$$$
CHEMBL245317
  -OEChem-07121202283D

 77 80  0     1  0  0  0  0  0999 V2000
   -0.0187    1.5258    0.0104 C   0  0  0  0  0  0  0  0  0  0  0  0
    0.0021   -0.0041    0.0020 C   0  0  0  0  0  0  0  0  0  0  0  0
    0.7182   -0.4975   -1.2568 C   0  0  0  0  0  0  0  0  0  0  0  0
    0.7386   -2.0043   -1.2651 C   0  0  0  0  0  0  0  0  0  0  0  0
    1.7371   -2.8090   -0.7054 C   0  0  0  0  0  0  0  0  0  0  0  0
    1.3740   -4.1350   -0.9304 C   0  0  0  0  0  0  0  0  0  0  0  0
    2.2608   -5.1909   -0.4384 C   0  0  0  0  0  0  0  0  0  0  0  0
    1.9844   -6.3672   -0.6123 O   0  0  0  0  0  0  0  0  0  0  0  0
    3.3842   -4.8398    0.2075 N   0  0  0  0  0  0  0  0  0  0  0  0
    3.6977   -3.5767    0.4033 C   0  0  0  0  0  0  0  0  0  0  0  0
    2.9154   -2.5523   -0.0295 N   0  0  0  0  0  0  0  0  0  0  0  0
    4.9471   -3.2598    1.1207 C   0  0  0  0  0  0  0  0  0  0  0  0
    5.3072   -1.9297    1.3507 C   0  0  0  0  0  0  0  0  0  0  0  0
    6.4754   -1.6404    2.0219 C   0  0  0  0  0  0  0  0  0  0  0  0
    7.2958   -2.6630    2.4697 C   0  0  0  0  0  0  0  0  0  0  0  0
    6.9520   -3.9820    2.2486 C   0  0  0  0  0  0  0  0  0  0  0  0
    5.7769   -4.2915    1.5805 C   0  0  0  0  0  0  0  0  0  0  0  0
    5.4349   -5.5872    1.3679 O   0  0  0  0  0  0  0  0  0  0  0  0
    6.3296   -6.5843    1.8652 C   0  0  0  0  0  0  0  0  0  0  0  0
    5.7806   -7.9733    1.5332 C   0  0  0  0  0  0  0  0  0  0  0  0
    6.7385   -9.0409    2.0656 C   0  0  0  0  0  0  0  0  0  0  0  0
    6.9282    0.0377    2.3112 S   0  0  0  0  0  0  0  0  0  0  0  0
    8.3389    0.0542    2.4813 O   0  0  0  0  0  0  0  0  0  0  0  0
    6.2716    0.8126    1.3174 O   0  0  0  0  0  0  0  0  0  0  0  0
    6.2708    0.4783    3.7659 N   0  0  0  0  0  0  0  0  0  0  0  0
    4.9220    1.0569    3.8332 C   0  0  0  0  0  0  0  0  0  0  0  0
    4.0873    0.2470    4.8304 C   0  0  0  0  0  0  0  0  0  0  0  0
    4.8163    0.1938    6.1749 C   0  0  0  0  0  0  0  0  0  0  0  0
    6.1672   -0.5032    5.9975 C   0  0  0  0  0  0  0  0  0  0  0  0
    7.0230    0.2926    5.0142 C   0  0  0  0  0  0  0  0  0  0  0  0
    3.9694   -0.5851    7.1834 C   0  0  0  0  0  0  0  0  0  0  0  0
    4.5963   -0.2795    8.8678 P   0  0  1  0  0  0  0  0  0  0  0  0
    6.1006   -0.6266    8.9283 O   0  0  0  0  0  0  0  0  0  0  0  0
    4.3963    1.2092    9.2295 O   0  5  0  0  0  0  0  0  0  0  0  0
    3.7907   -1.1992    9.9153 O   0  0  0  0  0  0  0  0  0  0  0  0
    4.1185   -1.2663   11.3046 C   0  0  0  0  0  0  0  0  0  0  0  0
    3.1600   -2.2288   12.0087 C   0  0  0  0  0  0  0  0  0  0  0  0
    0.1890   -4.1166   -1.6070 N   0  0  0  0  0  0  0  0  0  0  0  0
   -0.1769   -2.7759   -1.7917 N   0  0  0  0  0  0  0  0  0  0  0  0
   -0.5677   -5.2881   -2.0556 C   0  0  0  0  0  0  0  0  0  0  0  0
    1.0039    1.9031    0.0027 H   0  0  0  0  0  0  0  0  0  0  0  0
   -0.5459    1.8868   -0.8726 H   0  0  0  0  0  0  0  0  0  0  0  0
   -0.5289    1.8773    0.9072 H   0  0  0  0  0  0  0  0  0  0  0  0
    0.5293   -0.3651    0.8851 H   0  0  0  0  0  0  0  0  0  0  0  0
   -1.0205   -0.3814    0.0098 H   0  0  0  0  0  0  0  0  0  0  0  0
    0.1910   -0.1364   -2.1398 H   0  0  0  0  0  0  0  0  0  0  0  0
    1.7408   -0.1202   -1.2645 H   0  0  0  0  0  0  0  0  0  0  0  0
    4.6710   -1.1293    1.0027 H   0  0  0  0  0  0  0  0  0  0  0  0
    8.2097   -2.4272    2.9946 H   0  0  0  0  0  0  0  0  0  0  0  0
    7.5970   -4.7736    2.6002 H   0  0  0  0  0  0  0  0  0  0  0  0
    7.3075   -6.4595    1.4002 H   0  0  0  0  0  0  0  0  0  0  0  0
    6.4252   -6.4802    2.9460 H   0  0  0  0  0  0  0  0  0  0  0  0
    4.8027   -8.0982    1.9981 H   0  0  0  0  0  0  0  0  0  0  0  0
    5.6850   -8.0774    0.4524 H   0  0  0  0  0  0  0  0  0  0  0  0
    6.8341   -8.9368    3.1464 H   0  0  0  0  0  0  0  0  0  0  0  0
    6.3474  -10.0305    1.8291 H   0  0  0  0  0  0  0  0  0  0  0  0
    7.7164   -8.9161    1.6007 H   0  0  0  0  0  0  0  0  0  0  0  0
    4.9850    2.0929    4.1661 H   0  0  0  0  0  0  0  0  0  0  0  0
    4.4568    1.0150    2.8484 H   0  0  0  0  0  0  0  0  0  0  0  0
    3.1154    0.7226    4.9620 H   0  0  0  0  0  0  0  0  0  0  0  0
    3.9490   -0.7655    4.4512 H   0  0  0  0  0  0  0  0  0  0  0  0
    4.9762    1.2077    6.5417 H   0  0  0  0  0  0  0  0  0  0  0  0
    6.6756   -0.5616    6.9599 H   0  0  0  0  0  0  0  0  0  0  0  0
    6.0093   -1.5086    5.6073 H   0  0  0  0  0  0  0  0  0  0  0  0
    7.9436   -0.2535    4.8084 H   0  0  0  0  0  0  0  0  0  0  0  0
    7.2611    1.2649    5.4455 H   0  0  0  0  0  0  0  0  0  0  0  0
    2.9320   -0.2572    7.1168 H   0  0  0  0  0  0  0  0  0  0  0  0
    4.0287   -1.6506    6.9615 H   0  0  0  0  0  0  0  0  0  0  0  0
    5.1418   -1.6237   11.4196 H   0  0  0  0  0  0  0  0  0  0  0  0
    4.0280   -0.2745   11.7476 H   0  0  0  0  0  0  0  0  0  0  0  0
    2.1367   -1.8714   11.8937 H   0  0  0  0  0  0  0  0  0  0  0  0
    3.2504   -3.2206   11.5657 H   0  0  0  0  0  0  0  0  0  0  0  0
    3.4100   -2.2800   13.0684 H   0  0  0  0  0  0  0  0  0  0  0  0
   -1.2651   -5.5910   -1.2745 H   0  0  0  0  0  0  0  0  0  0  0  0
   -1.1218   -5.0381   -2.9604 H   0  0  0  0  0  0  0  0  0  0  0  0
    0.1207   -6.1067   -2.2656 H   0  0  0  0  0  0  0  0  0  0  0  0
    3.1857   -1.6357    0.1370 H   0  0  0  0  0  0  0  0  0  0  0  0
  1  2  1  0  0  0  0
  1 41  1  0  0  0  0
  1 42  1  0  0  0  0
  1 43  1  0  0  0  0
  2  3  1  0  0  0  0
  2 44  1  0  0  0  0
  2 45  1  0  0  0  0
  3  4  1  0  0  0  0
  3 46  1  0  0  0  0
  3 47  1  0  0  0  0
  4 39  2  0  0  0  0
  4  5  1  0  0  0  0
  5 11  1  0  0  0  0
  5  6  2  0  0  0  0
  6  7  1  0  0  0  0
  6 38  1  0  0  0  0
  7  8  2  0  0  0  0
  7  9  1  0  0  0  0
  9 10  2  0  0  0  0
 10 11  1  0  0  0  0
 10 12  1  0  0  0  0
 11 77  1  0  0  0  0
 12 17  2  0  0  0  0
 12 13  1  0  0  0  0
 13 14  2  0  0  0  0
 13 48  1  0  0  0  0
 14 15  1  0  0  0  0
 14 22  1  0  0  0  0
 15 16  2  0  0  0  0
 15 49  1  0  0  0  0
 16 17  1  0  0  0  0
 16 50  1  0  0  0  0
 17 18  1  0  0  0  0
 18 19  1  0  0  0  0
 19 20  1  0  0  0  0
 19 51  1  0  0  0  0
 19 52  1  0  0  0  0
 20 21  1  0  0  0  0
 20 53  1  0  0  0  0
 20 54  1  0  0  0  0
 21 55  1  0  0  0  0
 21 56  1  0  0  0  0
 21 57  1  0  0  0  0
 22 23  2  0  0  0  0
 22 24  2  0  0  0  0
 22 25  1  0  0  0  0
 25 30  1  0  0  0  0
 25 26  1  0  0  0  0
 26 27  1  0  0  0  0
 26 58  1  0  0  0  0
 26 59  1  0  0  0  0
 27 28  1  0  0  0  0
 27 60  1  0  0  0  0
 27 61  1  0  0  0  0
 28 29  1  0  0  0  0
 28 31  1  0  0  0  0
 28 62  1  0  0  0  0
 29 30  1  0  0  0  0
 29 63  1  0  0  0  0
 29 64  1  0  0  0  0
 30 65  1  0  0  0  0
 30 66  1  0  0  0  0
 31 32  1  0  0  0  0
 31 67  1  0  0  0  0
 31 68  1  0  0  0  0
 32 33  2  0  0  0  0
 32 34  1  0  0  0  0
 32 35  1  0  0  0  0
 35 36  1  0  0  0  0
 36 37  1  0  0  0  0
 36 69  1  0  0  0  0
 36 70  1  0  0  0  0
 37 71  1  0  0  0  0
 37 72  1  0  0  0  0
 37 73  1  0  0  0  0
 38 39  1  0  0  0  0
 38 40  1  0  0  0  0
 40 74  1  0  0  0  0
 40 75  1  0  0  0  0
 40 76  1  0  0  0  0
M  CHG  1  34  -1
M  END
$$$$
CHEMBL245317
  -OEChem-07121202283D

 76 79  0     1  0  0  0  0  0999 V2000
   -0.0187    1.5258    0.0104 C   0  0  0  0  0  0  0  0  0  0  0  0
    0.0021   -0.0041    0.0020 C   0  0  0  0  0  0  0  0  0  0  0  0
    0.7182   -0.4975   -1.2568 C   0  0  0  0  0  0  0  0  0  0  0  0
    0.7386   -2.0043   -1.2651 C   0  0  0  0  0  0  0  0  0  0  0  0
    1.7462   -2.8166   -0.7003 C   0  0  0  0  0  0  0  0  0  0  0  0
    1.3706   -4.1533   -0.9326 C   0  0  0  0  0  0  0  0  0  0  0  0
    2.2091   -5.1744   -0.4677 C   0  0  0  0  0  0  0  0  0  0  0  0
    1.8896   -6.4757   -0.6680 O   0  5  0  0  0  0  0  0  0  0  0  0
    3.3211   -4.8425    0.1714 N   0  0  0  0  0  0  0  0  0  0  0  0
    3.6455   -3.5680    0.3736 C   0  0  0  0  0  0  0  0  0  0  0  0
    2.8863   -2.5711   -0.0459 N   0  0  0  0  0  0  0  0  0  0  0  0
    4.9018   -3.2556    1.0949 C   0  0  0  0  0  0  0  0  0  0  0  0
    5.2652   -1.9301    1.3266 C   0  0  0  0  0  0  0  0  0  0  0  0
    6.4358   -1.6447    1.9985 C   0  0  0  0  0  0  0  0  0  0  0  0
    7.2520   -2.6702    2.4440 C   0  0  0  0  0  0  0  0  0  0  0  0
    6.9019   -3.9875    2.2200 C   0  0  0  0  0  0  0  0  0  0  0  0
    5.7257   -4.2895    1.5513 C   0  0  0  0  0  0  0  0  0  0  0  0
    5.3775   -5.5841    1.3354 O   0  0  0  0  0  0  0  0  0  0  0  0
    6.2678   -6.5865    1.8301 C   0  0  0  0  0  0  0  0  0  0  0  0
    5.7126   -7.9722    1.4947 C   0  0  0  0  0  0  0  0  0  0  0  0
    6.6657   -9.0454    2.0244 C   0  0  0  0  0  0  0  0  0  0  0  0
    6.8940    0.0315    2.2902 S   0  0  0  0  0  0  0  0  0  0  0  0
    8.3048    0.0432    2.4598 O   0  0  0  0  0  0  0  0  0  0  0  0
    6.2395    0.8100    1.2978 O   0  0  0  0  0  0  0  0  0  0  0  0
    6.2385    0.4720    3.7457 N   0  0  0  0  0  0  0  0  0  0  0  0
    4.8916    1.0548    3.8144 C   0  0  0  0  0  0  0  0  0  0  0  0
    4.0547    0.2462    4.8107 C   0  0  0  0  0  0  0  0  0  0  0  0
    4.7840    0.1886    6.1549 C   0  0  0  0  0  0  0  0  0  0  0  0
    6.1325   -0.5125    5.9759 C   0  0  0  0  0  0  0  0  0  0  0  0
    6.9905    0.2820    4.9935 C   0  0  0  0  0  0  0  0  0  0  0  0
    3.9349   -0.5891    7.1625 C   0  0  0  0  0  0  0  0  0  0  0  0
    4.5634   -0.2880    8.8471 P   0  0  1  0  0  0  0  0  0  0  0  0
    6.0666   -0.6400    8.9066 O   0  0  0  0  0  0  0  0  0  0  0  0
    4.3683    1.2008    9.2111 O   0  5  0  0  0  0  0  0  0  0  0  0
    3.7552   -1.2067    9.8935 O   0  0  0  0  0  0  0  0  0  0  0  0
    4.0833   -1.2770   11.2826 C   0  0  0  0  0  0  0  0  0  0  0  0
    3.1219   -2.2374   11.9857 C   0  0  0  0  0  0  0  0  0  0  0  0
    0.1819   -4.1166   -1.6111 N   0  0  0  0  0  0  0  0  0  0  0  0
   -0.1735   -2.7733   -1.7897 N   0  0  0  0  0  0  0  0  0  0  0  0
   -0.5863   -5.2783   -2.0657 C   0  0  0  0  0  0  0  0  0  0  0  0
    1.0039    1.9031    0.0027 H   0  0  0  0  0  0  0  0  0  0  0  0
   -0.5459    1.8868   -0.8726 H   0  0  0  0  0  0  0  0  0  0  0  0
   -0.5289    1.8773    0.9072 H   0  0  0  0  0  0  0  0  0  0  0  0
    0.5293   -0.3651    0.8851 H   0  0  0  0  0  0  0  0  0  0  0  0
   -1.0205   -0.3814    0.0098 H   0  0  0  0  0  0  0  0  0  0  0  0
    0.1910   -0.1364   -2.1398 H   0  0  0  0  0  0  0  0  0  0  0  0
    1.7408   -0.1202   -1.2645 H   0  0  0  0  0  0  0  0  0  0  0  0
    4.6312   -1.1273    0.9803 H   0  0  0  0  0  0  0  0  0  0  0  0
    8.1671   -2.4391    2.9690 H   0  0  0  0  0  0  0  0  0  0  0  0
    7.5432   -4.7831    2.5697 H   0  0  0  0  0  0  0  0  0  0  0  0
    7.2462   -6.4649    1.3653 H   0  0  0  0  0  0  0  0  0  0  0  0
    6.3640   -6.4855    2.9111 H   0  0  0  0  0  0  0  0  0  0  0  0
    4.7342   -8.0938    1.9595 H   0  0  0  0  0  0  0  0  0  0  0  0
    5.6163   -8.0732    0.4137 H   0  0  0  0  0  0  0  0  0  0  0  0
    6.2702  -10.0326    1.7855 H   0  0  0  0  0  0  0  0  0  0  0  0
    7.6441   -8.9238    1.5596 H   0  0  0  0  0  0  0  0  0  0  0  0
    6.7620   -8.9444    3.1055 H   0  0  0  0  0  0  0  0  0  0  0  0
    4.9580    2.0902    4.1488 H   0  0  0  0  0  0  0  0  0  0  0  0
    4.4259    1.0159    2.8297 H   0  0  0  0  0  0  0  0  0  0  0  0
    3.0843    0.7246    4.9434 H   0  0  0  0  0  0  0  0  0  0  0  0
    3.9130   -0.7653    4.4300 H   0  0  0  0  0  0  0  0  0  0  0  0
    4.9472    1.2014    6.5231 H   0  0  0  0  0  0  0  0  0  0  0  0
    6.6411   -0.5739    6.9381 H   0  0  0  0  0  0  0  0  0  0  0  0
    5.9713   -1.5168    5.5843 H   0  0  0  0  0  0  0  0  0  0  0  0
    7.9093   -0.2667    4.7865 H   0  0  0  0  0  0  0  0  0  0  0  0
    7.2320    1.2529    5.4262 H   0  0  0  0  0  0  0  0  0  0  0  0
    2.8986   -0.2578    7.0967 H   0  0  0  0  0  0  0  0  0  0  0  0
    3.9907   -1.6544    6.9390 H   0  0  0  0  0  0  0  0  0  0  0  0
    5.1055   -1.6378   11.3967 H   0  0  0  0  0  0  0  0  0  0  0  0
    3.9961   -0.2855   11.7271 H   0  0  0  0  0  0  0  0  0  0  0  0
    2.0997   -1.8766   11.8716 H   0  0  0  0  0  0  0  0  0  0  0  0
    3.2091   -3.2288   11.5411 H   0  0  0  0  0  0  0  0  0  0  0  0
    3.3722   -2.2910   13.0452 H   0  0  0  0  0  0  0  0  0  0  0  0
   -1.2865   -5.5786   -1.2862 H   0  0  0  0  0  0  0  0  0  0  0  0
   -1.1380   -5.0182   -2.9691 H   0  0  0  0  0  0  0  0  0  0  0  0
    0.0940   -6.1025   -2.2801 H   0  0  0  0  0  0  0  0  0  0  0  0
  1  2  1  0  0  0  0
  1 41  1  0  0  0  0
  1 42  1  0  0  0  0
  1 43  1  0  0  0  0
  2  3  1  0  0  0  0
  2 44  1  0  0  0  0
  2 45  1  0  0  0  0
  3  4  1  0  0  0  0
  3 46  1  0  0  0  0
  3 47  1  0  0  0  0
  4 39  2  0  0  0  0
  4  5  1  0  0  0  0
  5 11  2  0  0  0  0
  5  6  1  0  0  0  0
  6  7  2  0  0  0  0
  6 38  1  0  0  0  0
  7  8  1  0  0  0  0
  7  9  1  0  0  0  0
  9 10  2  0  0  0  0
 10 11  1  0  0  0  0
 10 12  1  0  0  0  0
 12 17  2  0  0  0  0
 12 13  1  0  0  0  0
 13 14  2  0  0  0  0
 13 48  1  0  0  0  0
 14 15  1  0  0  0  0
 14 22  1  0  0  0  0
 15 16  2  0  0  0  0
 15 49  1  0  0  0  0
 16 17  1  0  0  0  0
 16 50  1  0  0  0  0
 17 18  1  0  0  0  0
 18 19  1  0  0  0  0
 19 20  1  0  0  0  0
 19 51  1  0  0  0  0
 19 52  1  0  0  0  0
 20 21  1  0  0  0  0
 20 53  1  0  0  0  0
 20 54  1  0  0  0  0
 21 55  1  0  0  0  0
 21 56  1  0  0  0  0
 21 57  1  0  0  0  0
 22 23  2  0  0  0  0
 22 24  2  0  0  0  0
 22 25  1  0  0  0  0
 25 30  1  0  0  0  0
 25 26  1  0  0  0  0
 26 27  1  0  0  0  0
 26 58  1  0  0  0  0
 26 59  1  0  0  0  0
 27 28  1  0  0  0  0
 27 60  1  0  0  0  0
 27 61  1  0  0  0  0
 28 29  1  0  0  0  0
 28 31  1  0  0  0  0
 28 62  1  0  0  0  0
 29 30  1  0  0  0  0
 29 63  1  0  0  0  0
 29 64  1  0  0  0  0
 30 65  1  0  0  0  0
 30 66  1  0  0  0  0
 31 32  1  0  0  0  0
 31 67  1  0  0  0  0
 31 68  1  0  0  0  0
 32 33  2  0  0  0  0
 32 34  1  0  0  0  0
 32 35  1  0  0  0  0
 35 36  1  0  0  0  0
 36 37  1  0  0  0  0
 36 69  1  0  0  0  0
 36 70  1  0  0  0  0
 37 71  1  0  0  0  0
 37 72  1  0  0  0  0
 37 73  1  0  0  0  0
 38 39  1  0  0  0  0
 38 40  1  0  0  0  0
 40 74  1  0  0  0  0
 40 75  1  0  0  0  0
 40 76  1  0  0  0  0
M  CHG  2   8  -1  34  -1
M  END
$$$$
CHEMBL397383
  -OEChem-07121202283D

 53 59  0     1  0  0  0  0  0999 V2000
    0.3748    0.9968    2.6146 C   0  0  0  0  0  0  0  0  0  0  0  0
    1.4845    1.7938    2.3852 C   0  0  0  0  0  0  0  0  0  0  0  0
    2.6233    1.3131    1.7626 C   0  0  0  0  0  0  0  0  0  0  0  0
    2.6108   -0.0234    1.3687 C   0  0  0  0  0  0  0  0  0  0  0  0
    1.4713   -0.8345    1.6050 C   0  0  0  0  0  0  0  0  0  0  0  0
    0.3340   -0.3228    2.2373 C   0  0  0  0  0  0  0  0  0  0  0  0
    1.7949   -2.1435    1.0752 C   0  0  0  0  0  0  0  0  0  0  0  0
    3.0455   -2.0675    0.5709 C   0  0  0  0  0  0  0  0  0  0  0  0
    3.5421   -0.8030    0.7453 N   0  0  0  0  0  0  0  0  0  0  0  0
    4.4228   -0.5061    0.4676 H   0  0  0  0  0  0  0  0  0  0  0  0
    3.7527   -3.2307   -0.0867 C   0  0  2  0  0  0  0  0  0  0  0  0
    3.8131   -3.0669   -1.1626 H   0  0  0  0  0  0  0  0  0  0  0  0
    2.9601   -4.4471    0.1925 N   0  0  0  0  0  0  0  0  0  0  0  0
    1.5088   -4.3684    0.0324 C   0  0  2  0  0  0  0  0  0  0  0  0
    1.2845   -3.9967   -0.9674 H   0  0  0  0  0  0  0  0  0  0  0  0
    0.9403   -3.3852    1.0654 C   0  0  0  0  0  0  0  0  0  0  0  0
    0.8505   -5.6982    0.2121 C   0  0  0  0  0  0  0  0  0  0  0  0
   -0.3433   -5.7727    0.0112 O   0  0  0  0  0  0  0  0  0  0  0  0
    1.4915   -6.8065    0.5783 N   0  0  0  0  0  0  0  0  0  0  0  0
    2.9189   -6.8634    0.8462 C   0  0  0  0  0  0  0  0  0  0  0  0
    3.5921   -5.5577    0.5775 C   0  0  0  0  0  0  0  0  0  0  0  0
    4.7915   -5.4961    0.7466 O   0  0  0  0  0  0  0  0  0  0  0  0
    0.7476   -7.9845    0.7135 C   0  0  0  0  0  0  0  0  0  0  0  0
    0.1622   -8.3240    1.9303 C   0  0  0  0  0  0  0  0  0  0  0  0
   -0.5334   -9.4457    2.0167 N   0  0  0  0  0  0  0  0  0  0  0  0
   -0.6754  -10.2361    0.9717 C   0  0  0  0  0  0  0  0  0  0  0  0
   -0.1367   -9.9502   -0.1967 N   0  0  0  0  0  0  0  0  0  0  0  0
    0.5688   -8.8444   -0.3668 C   0  0  0  0  0  0  0  0  0  0  0  0
    5.1384   -3.3779    0.4871 C   0  0  0  0  0  0  0  0  0  0  0  0
    6.2299   -3.4569   -0.3577 C   0  0  0  0  0  0  0  0  0  0  0  0
    7.5030   -3.5915    0.1638 C   0  0  0  0  0  0  0  0  0  0  0  0
    7.6879   -3.6481    1.5357 C   0  0  0  0  0  0  0  0  0  0  0  0
    6.5884   -3.5686    2.3867 C   0  0  0  0  0  0  0  0  0  0  0  0
    5.3159   -3.4280    1.8571 C   0  0  0  0  0  0  0  0  0  0  0  0
    7.0284   -3.6470    3.6765 O   0  0  0  0  0  0  0  0  0  0  0  0
    8.3616   -4.1847    3.5958 C   0  0  0  0  0  0  0  0  0  0  0  0
    8.8168   -3.7763    2.2923 O   0  0  0  0  0  0  0  0  0  0  0  0
   -0.4838    1.4258    3.1098 H   0  0  0  0  0  0  0  0  0  0  0  0
    1.4599    2.8257    2.7029 H   0  0  0  0  0  0  0  0  0  0  0  0
    3.4819    1.9450    1.5896 H   0  0  0  0  0  0  0  0  0  0  0  0
   -0.5356   -0.9365    2.4203 H   0  0  0  0  0  0  0  0  0  0  0  0
    0.9532   -3.8453    2.0534 H   0  0  0  0  0  0  0  0  0  0  0  0
   -0.0826   -3.1226    0.7957 H   0  0  0  0  0  0  0  0  0  0  0  0
    3.0727   -7.1439    1.8882 H   0  0  0  0  0  0  0  0  0  0  0  0
    3.3693   -7.6225    0.2066 H   0  0  0  0  0  0  0  0  0  0  0  0
    0.2747   -7.6812    2.7908 H   0  0  0  0  0  0  0  0  0  0  0  0
   -1.2496  -11.1448    1.0759 H   0  0  0  0  0  0  0  0  0  0  0  0
    1.0035   -8.6142   -1.3283 H   0  0  0  0  0  0  0  0  0  0  0  0
    6.0876   -3.4137   -1.4275 H   0  0  0  0  0  0  0  0  0  0  0  0
    8.3539   -3.6530   -0.4985 H   0  0  0  0  0  0  0  0  0  0  0  0
    4.4618   -3.3615    2.5148 H   0  0  0  0  0  0  0  0  0  0  0  0
    8.9945   -3.7577    4.3737 H   0  0  0  0  0  0  0  0  0  0  0  0
    8.3413   -5.2720    3.6711 H   0  0  0  0  0  0  0  0  0  0  0  0
  1  6  2  0  0  0  0
  1  2  1  0  0  0  0
  1 38  1  0  0  0  0
  2  3  2  0  0  0  0
  2 39  1  0  0  0  0
  3  4  1  0  0  0  0
  3 40  1  0  0  0  0
  4  9  1  0  0  0  0
  4  5  2  0  0  0  0
  5  6  1  0  0  0  0
  5  7  1  0  0  0  0
  6 41  1  0  0  0  0
  7 16  1  0  0  0  0
  7  8  2  0  0  0  0
  8  9  1  0  0  0  0
  8 11  1  0  0  0  0
  9 10  1  0  0  0  0
 11 12  1  0  0  0  0
 11 13  1  0  0  0  0
 11 29  1  0  0  0  0
 13 21  1  0  0  0  0
 13 14  1  0  0  0  0
 14 15  1  0  0  0  0
 14 16  1  0  0  0  0
 14 17  1  0  0  0  0
 16 42  1  0  0  0  0
 16 43  1  0  0  0  0
 17 18  2  0  0  0  0
 17 19  1  0  0  0  0
 19 20  1  0  0  0  0
 19 23  1  0  0  0  0
 20 21  1  0  0  0  0
 20 44  1  0  0  0  0
 20 45  1  0  0  0  0
 21 22  2  0  0  0  0
 23 28  2  0  0  0  0
 23 24  1  0  0  0  0
 24 25  2  0  0  0  0
 24 46  1  0  0  0  0
 25 26  1  0  0  0  0
 26 27  2  0  0  0  0
 26 47  1  0  0  0  0
 27 28  1  0  0  0  0
 28 48  1  0  0  0  0
 29 34  2  0  0  0  0
 29 30  1  0  0  0  0
 30 31  2  0  0  0  0
 30 49  1  0  0  0  0
 31 32  1  0  0  0  0
 31 50  1  0  0  0  0
 32 37  1  0  0  0  0
 32 33  2  0  0  0  0
 33 34  1  0  0  0  0
 33 35  1  0  0  0  0
 34 51  1  0  0  0  0
 35 36  1  0  0  0  0
 36 37  1  0  0  0  0
 36 52  1  0  0  0  0
 36 53  1  0  0  0  0
M  END
$$$$
CHEMBL247893
  -OEChem-07121202283D

 52 58  0     1  0  0  0  0  0999 V2000
   -0.2374    1.1659    0.2459 C   0  0  0  0  0  0  0  0  0  0  0  0
    0.8882    1.9729    0.2738 C   0  0  0  0  0  0  0  0  0  0  0  0
    2.1706    1.4540    0.2285 C   0  0  0  0  0  0  0  0  0  0  0  0
    2.2880    0.0677    0.1521 C   0  0  0  0  0  0  0  0  0  0  0  0
    1.1318   -0.7537    0.1227 C   0  0  0  0  0  0  0  0  0  0  0  0
   -0.1522   -0.2024    0.1707 C   0  0  0  0  0  0  0  0  0  0  0  0
    1.6121   -2.1181    0.0402 C   0  0  0  0  0  0  0  0  0  0  0  0
    2.9614   -2.0616    0.0242 C   0  0  0  0  0  0  0  0  0  0  0  0
    3.3740   -0.7575    0.0940 N   0  0  0  0  0  0  0  0  0  0  0  0
    4.2987   -0.4643    0.1011 H   0  0  0  0  0  0  0  0  0  0  0  0
    3.8472   -3.2835   -0.0649 C   0  0  2  0  0  0  0  0  0  0  0  0
    4.3051   -3.3376   -1.0526 H   0  0  0  0  0  0  0  0  0  0  0  0
    2.9920   -4.4687    0.1577 N   0  0  0  0  0  0  0  0  0  0  0  0
    1.7051   -4.5223   -0.5346 C   0  0  2  0  0  0  0  0  0  0  0  0
    1.8731   -4.3771   -1.6017 H   0  0  0  0  0  0  0  0  0  0  0  0
    0.8064   -3.3907   -0.0162 C   0  0  0  0  0  0  0  0  0  0  0  0
    1.0101   -5.8294   -0.3288 C   0  0  0  0  0  0  0  0  0  0  0  0
   -0.0246   -6.0236   -0.9314 O   0  0  0  0  0  0  0  0  0  0  0  0
    1.4547   -6.7945    0.4737 N   0  0  0  0  0  0  0  0  0  0  0  0
    2.6795   -6.6995    1.2504 C   0  0  0  0  0  0  0  0  0  0  0  0
    3.4213   -5.4330    0.9745 C   0  0  0  0  0  0  0  0  0  0  0  0
    4.4727   -5.2575    1.5530 O   0  0  0  0  0  0  0  0  0  0  0  0
    0.6999   -7.9661    0.5753 C   0  0  0  0  0  0  0  0  0  0  0  0
    0.9394   -9.0789    1.3238 C   0  0  0  0  0  0  0  0  0  0  0  0
    0.0410  -10.1284    1.2633 C   0  0  0  0  0  0  0  0  0  0  0  0
   -1.0471  -10.0186    0.4638 C   0  0  0  0  0  0  0  0  0  0  0  0
   -0.8327   -8.3904   -0.2359 S   0  0  0  0  0  0  0  0  0  0  0  0
    4.9185   -3.2175    0.9929 C   0  0  0  0  0  0  0  0  0  0  0  0
    6.2447   -3.3922    0.6433 C   0  0  0  0  0  0  0  0  0  0  0  0
    7.2311   -3.3320    1.6099 C   0  0  0  0  0  0  0  0  0  0  0  0
    6.8923   -3.0967    2.9326 C   0  0  0  0  0  0  0  0  0  0  0  0
    5.5564   -2.9208    3.2847 C   0  0  0  0  0  0  0  0  0  0  0  0
    4.5737   -2.9767    2.3097 C   0  0  0  0  0  0  0  0  0  0  0  0
    5.4847   -2.7062    4.6308 O   0  0  0  0  0  0  0  0  0  0  0  0
    6.7454   -3.1578    5.1598 C   0  0  0  0  0  0  0  0  0  0  0  0
    7.6575   -2.9923    4.0581 O   0  0  0  0  0  0  0  0  0  0  0  0
   -1.2129    1.6275    0.2892 H   0  0  0  0  0  0  0  0  0  0  0  0
    0.7608    3.0438    0.3326 H   0  0  0  0  0  0  0  0  0  0  0  0
    3.0401    2.0942    0.2509 H   0  0  0  0  0  0  0  0  0  0  0  0
   -1.0354   -0.8236    0.1495 H   0  0  0  0  0  0  0  0  0  0  0  0
    0.4453   -3.6391    0.9818 H   0  0  0  0  0  0  0  0  0  0  0  0
   -0.0396   -3.2579   -0.6905 H   0  0  0  0  0  0  0  0  0  0  0  0
    2.4316   -6.7519    2.3105 H   0  0  0  0  0  0  0  0  0  0  0  0
    3.3254   -7.5403    0.9974 H   0  0  0  0  0  0  0  0  0  0  0  0
    1.8152   -9.1405    1.9527 H   0  0  0  0  0  0  0  0  0  0  0  0
    0.2048  -11.0235    1.8451 H   0  0  0  0  0  0  0  0  0  0  0  0
   -1.8415  -10.7308    0.2963 H   0  0  0  0  0  0  0  0  0  0  0  0
    6.5106   -3.5765   -0.3871 H   0  0  0  0  0  0  0  0  0  0  0  0
    8.2662   -3.4689    1.3340 H   0  0  0  0  0  0  0  0  0  0  0  0
    3.5373   -2.8361    2.5792 H   0  0  0  0  0  0  0  0  0  0  0  0
    7.0495   -2.5402    6.0049 H   0  0  0  0  0  0  0  0  0  0  0  0
    6.6845   -4.2060    5.4525 H   0  0  0  0  0  0  0  0  0  0  0  0
  1  6  2  0  0  0  0
  1  2  1  0  0  0  0
  1 37  1  0  0  0  0
  2  3  2  0  0  0  0
  2 38  1  0  0  0  0
  3  4  1  0  0  0  0
  3 39  1  0  0  0  0
  4  9  1  0  0  0  0
  4  5  2  0  0  0  0
  5  6  1  0  0  0  0
  5  7  1  0  0  0  0
  6 40  1  0  0  0  0
  7 16  1  0  0  0  0
  7  8  2  0  0  0  0
  8  9  1  0  0  0  0
  8 11  1  0  0  0  0
  9 10  1  0  0  0  0
 11 12  1  0  0  0  0
 11 13  1  0  0  0  0
 11 28  1  0  0  0  0
 13 21  1  0  0  0  0
 13 14  1  0  0  0  0
 14 15  1  0  0  0  0
 14 16  1  0  0  0  0
 14 17  1  0  0  0  0
 16 41  1  0  0  0  0
 16 42  1  0  0  0  0
 17 18  2  0  0  0  0
 17 19  1  0  0  0  0
 19 20  1  0  0  0  0
 19 23  1  0  0  0  0
 20 21  1  0  0  0  0
 20 43  1  0  0  0  0
 20 44  1  0  0  0  0
 21 22  2  0  0  0  0
 23 27  1  0  0  0  0
 23 24  2  0  0  0  0
 24 25  1  0  0  0  0
 24 45  1  0  0  0  0
 25 26  2  0  0  0  0
 25 46  1  0  0  0  0
 26 27  1  0  0  0  0
 26 47  1  0  0  0  0
 28 33  2  0  0  0  0
 28 29  1  0  0  0  0
 29 30  2  0  0  0  0
 29 48  1  0  0  0  0
 30 31  1  0  0  0  0
 30 49  1  0  0  0  0
 31 36  1  0  0  0  0
 31 32  2  0  0  0  0
 32 33  1  0  0  0  0
 32 34  1  0  0  0  0
 33 50  1  0  0  0  0
 34 35  1  0  0  0  0
 35 36  1  0  0  0  0
 35 51  1  0  0  0  0
 35 52  1  0  0  0  0
M  END
$$$$
CHEMBL140599
  -OEChem-07121202283D

 55 61  0     1  0  0  0  0  0999 V2000
   -0.0167    1.3781    0.0096 C   0  0  0  0  0  0  0  0  0  0  0  0
    1.1709    2.0855    0.0021 C   0  0  0  0  0  0  0  0  0  0  0  0
    2.3773    1.4107   -0.0130 C   0  0  0  0  0  0  0  0  0  0  0  0
    2.3960    0.0285   -0.0201 C   0  0  0  0  0  0  0  0  0  0  0  0
    1.2084   -0.6789   -0.0117 C   0  0  0  0  0  0  0  0  0  0  0  0
    0.0021   -0.0041    0.0020 C   0  0  0  0  0  0  0  0  0  0  0  0
    3.7112   -0.7071   -0.0376 C   0  0  0  0  0  0  0  0  0  0  0  0
    4.1518   -0.9524    1.3379 N   0  0  0  0  0  0  0  0  0  0  0  0
    4.9200   -0.1028    2.0500 C   0  0  0  0  0  0  0  0  0  0  0  0
    5.3457    0.9739    1.6903 O   0  0  0  0  0  0  0  0  0  0  0  0
    5.1413   -0.7705    3.3919 C   0  0  1  0  0  0  0  0  0  0  0  0
    6.1962   -0.9805    3.5687 H   0  0  0  0  0  0  0  0  0  0  0  0
    4.5448    0.0995    4.5048 C   0  0  0  0  0  0  0  0  0  0  0  0
    4.1895   -0.7714    5.6838 C   0  0  0  0  0  0  0  0  0  0  0  0
    3.9745   -0.3525    7.0566 C   0  0  0  0  0  0  0  0  0  0  0  0
    4.0274    0.8968    7.6823 C   0  0  0  0  0  0  0  0  0  0  0  0
    3.7620    0.9267    9.0294 C   0  0  0  0  0  0  0  0  0  0  0  0
    3.4557   -0.2195    9.7448 C   0  0  0  0  0  0  0  0  0  0  0  0
    3.3961   -1.4680    9.1503 C   0  0  0  0  0  0  0  0  0  0  0  0
    3.6606   -1.5288    7.7834 C   0  0  0  0  0  0  0  0  0  0  0  0
    3.6871   -2.5698    6.9009 N   0  0  0  0  0  0  0  0  0  0  0  0
    3.5068   -3.4963    7.1246 H   0  0  0  0  0  0  0  0  0  0  0  0
    4.0063   -2.1083    5.6519 C   0  0  0  0  0  0  0  0  0  0  0  0
    4.1527   -2.9466    4.3972 C   0  0  2  0  0  0  0  0  0  0  0  0
    4.3464   -2.0131    3.2782 N   0  0  0  0  0  0  0  0  0  0  0  0
    3.8363   -2.0465    2.0459 C   0  0  0  0  0  0  0  0  0  0  0  0
    3.1660   -2.9638    1.6140 O   0  0  0  0  0  0  0  0  0  0  0  0
    2.9132   -3.7761    4.1815 C   0  0  0  0  0  0  0  0  0  0  0  0
    1.7909   -3.2040    3.6117 C   0  0  0  0  0  0  0  0  0  0  0  0
    0.6516   -3.9609    3.4113 C   0  0  0  0  0  0  0  0  0  0  0  0
    0.6320   -5.2957    3.7819 C   0  0  0  0  0  0  0  0  0  0  0  0
    1.7624   -5.8720    4.3559 C   0  0  0  0  0  0  0  0  0  0  0  0
    2.9026   -5.1088    4.5484 C   0  0  0  0  0  0  0  0  0  0  0  0
    1.4934   -7.1821    4.6289 O   0  0  0  0  0  0  0  0  0  0  0  0
    0.0584   -7.2954    4.5932 C   0  0  0  0  0  0  0  0  0  0  0  0
   -0.3453   -6.2448    3.6953 O   0  0  0  0  0  0  0  0  0  0  0  0
   -0.9591    1.9053    0.0259 H   0  0  0  0  0  0  0  0  0  0  0  0
    1.1563    3.1654    0.0076 H   0  0  0  0  0  0  0  0  0  0  0  0
    3.3051    1.9634   -0.0196 H   0  0  0  0  0  0  0  0  0  0  0  0
    1.2231   -1.7588   -0.0176 H   0  0  0  0  0  0  0  0  0  0  0  0
   -0.9258   -0.5567    0.0082 H   0  0  0  0  0  0  0  0  0  0  0  0
    3.5884   -1.6586   -0.5549 H   0  0  0  0  0  0  0  0  0  0  0  0
    4.4573   -0.1052   -0.5563 H   0  0  0  0  0  0  0  0  0  0  0  0
    5.2753    0.8477    4.8125 H   0  0  0  0  0  0  0  0  0  0  0  0
    3.6475    0.5966    4.1364 H   0  0  0  0  0  0  0  0  0  0  0  0
    4.2659    1.7953    7.1326 H   0  0  0  0  0  0  0  0  0  0  0  0
    3.7935    1.8737    9.5476 H   0  0  0  0  0  0  0  0  0  0  0  0
    3.2570   -0.1359   10.8031 H   0  0  0  0  0  0  0  0  0  0  0  0
    3.1560   -2.3540    9.7193 H   0  0  0  0  0  0  0  0  0  0  0  0
    5.0272   -3.5922    4.4782 H   0  0  0  0  0  0  0  0  0  0  0  0
    1.8042   -2.1634    3.3229 H   0  0  0  0  0  0  0  0  0  0  0  0
   -0.2236   -3.5114    2.9660 H   0  0  0  0  0  0  0  0  0  0  0  0
    3.7822   -5.5543    4.9892 H   0  0  0  0  0  0  0  0  0  0  0  0
   -0.2393   -8.2685    4.2027 H   0  0  0  0  0  0  0  0  0  0  0  0
   -0.3633   -7.1344    5.5854 H   0  0  0  0  0  0  0  0  0  0  0  0
  1  6  2  0  0  0  0
  1  2  1  0  0  0  0
  1 37  1  0  0  0  0
  2  3  2  0  0  0  0
  2 38  1  0  0  0  0
  3  4  1  0  0  0  0
  3 39  1  0  0  0  0
  4  5  2  0  0  0  0
  4  7  1  0  0  0  0
  5  6  1  0  0  0  0
  5 40  1  0  0  0  0
  6 41  1  0  0  0  0
  7  8  1  0  0  0  0
  7 42  1  0  0  0  0
  7 43  1  0  0  0  0
  8 26  1  0  0  0  0
  8  9  1  0  0  0  0
  9 10  2  0  0  0  0
  9 11  1  0  0  0  0
 11 12  1  0  0  0  0
 11 25  1  0  0  0  0
 11 13  1  0  0  0  0
 13 14  1  0  0  0  0
 13 44  1  0  0  0  0
 13 45  1  0  0  0  0
 14 23  2  0  0  0  0
 14 15  1  0  0  0  0
 15 20  2  0  0  0  0
 15 16  1  0  0  0  0
 16 17  2  0  0  0  0
 16 46  1  0  0  0  0
 17 18  1  0  0  0  0
 17 47  1  0  0  0  0
 18 19  2  0  0  0  0
 18 48  1  0  0  0  0
 19 20  1  0  0  0  0
 19 49  1  0  0  0  0
 20 21  1  0  0  0  0
 21 22  1  0  0  0  0
 21 23  1  0  0  0  0
 23 24  1  0  0  0  0
 24 25  1  0  0  0  0
 24 28  1  0  0  0  0
 24 50  1  0  0  0  0
 25 26  1  0  0  0  0
 26 27  2  0  0  0  0
 28 33  2  0  0  0  0
 28 29  1  0  0  0  0
 29 30  2  0  0  0  0
 29 51  1  0  0  0  0
 30 31  1  0  0  0  0
 30 52  1  0  0  0  0
 31 36  1  0  0  0  0
 31 32  2  0  0  0  0
 32 33  1  0  0  0  0
 32 34  1  0  0  0  0
 33 53  1  0  0  0  0
 34 35  1  0  0  0  0
 35 36  1  0  0  0  0
 35 54  1  0  0  0  0
 35 55  1  0  0  0  0
M  END
$$$$
CHEMBL140599
  -OEChem-07121202283D

 55 61  0     1  0  0  0  0  0999 V2000
    0.0258    1.4381    0.0290 C   0  0  0  0  0  0  0  0  0  0  0  0
    1.2124    2.1471    0.0453 C   0  0  0  0  0  0  0  0  0  0  0  0
    2.4198    1.4742    0.0334 C   0  0  0  0  0  0  0  0  0  0  0  0
    2.4407    0.0922    0.0058 C   0  0  0  0  0  0  0  0  0  0  0  0
    1.2541   -0.6168   -0.0095 C   0  0  0  0  0  0  0  0  0  0  0  0
    0.0467    0.0562    0.0009 C   0  0  0  0  0  0  0  0  0  0  0  0
    3.7570   -0.6413   -0.0081 C   0  0  0  0  0  0  0  0  0  0  0  0
    4.1827   -0.9067    1.3683 N   0  0  0  0  0  0  0  0  0  0  0  0
    4.9418   -0.0669    2.1015 C   0  0  0  0  0  0  0  0  0  0  0  0
    5.3698    1.0157    1.7629 O   0  0  0  0  0  0  0  0  0  0  0  0
    5.1492   -0.7543    3.4357 C   0  0  1  0  0  0  0  0  0  0  0  0
    6.2023   -0.9656    3.6210 H   0  0  0  0  0  0  0  0  0  0  0  0
    4.5391    0.0980    4.5549 C   0  0  0  0  0  0  0  0  0  0  0  0
    4.1720   -0.7909    5.7166 C   0  0  0  0  0  0  0  0  0  0  0  0
    3.9413   -0.3930    7.0931 C   0  0  0  0  0  0  0  0  0  0  0  0
    3.9854    0.8468    7.7381 C   0  0  0  0  0  0  0  0  0  0  0  0
    3.7051    0.8561    9.0824 C   0  0  0  0  0  0  0  0  0  0  0  0
    3.3925   -0.3010    9.7771 C   0  0  0  0  0  0  0  0  0  0  0  0
    3.3413   -1.5406    9.1632 C   0  0  0  0  0  0  0  0  0  0  0  0
    3.6210   -1.5805    7.7986 C   0  0  0  0  0  0  0  0  0  0  0  0
    3.6589   -2.6081    6.9009 N   0  0  0  0  0  0  0  0  0  0  0  0
    3.4775   -3.5381    7.1087 H   0  0  0  0  0  0  0  0  0  0  0  0
    3.9912   -2.1274    5.6626 C   0  0  0  0  0  0  0  0  0  0  0  0
    4.1527   -2.9466    4.3972 C   0  0  1  0  0  0  0  0  0  0  0  0
    4.3574   -1.9961    3.2946 N   0  0  0  0  0  0  0  0  0  0  0  0
    3.8610   -2.0117    2.0563 C   0  0  0  0  0  0  0  0  0  0  0  0
    3.1969   -2.9233    1.6033 O   0  0  0  0  0  0  0  0  0  0  0  0
    5.3617   -3.8392    4.5093 C   0  0  0  0  0  0  0  0  0  0  0  0
    5.2047   -5.2124    4.5417 C   0  0  0  0  0  0  0  0  0  0  0  0
    6.3107   -6.0354    4.6439 C   0  0  0  0  0  0  0  0  0  0  0  0
    7.5802   -5.4851    4.7146 C   0  0  0  0  0  0  0  0  0  0  0  0
    7.7384   -4.1018    4.6821 C   0  0  0  0  0  0  0  0  0  0  0  0
    6.6258   -3.2834    4.5737 C   0  0  0  0  0  0  0  0  0  0  0  0
    9.0699   -3.8129    4.7654 O   0  0  0  0  0  0  0  0  0  0  0  0
    9.6934   -5.0129    5.2599 C   0  0  0  0  0  0  0  0  0  0  0  0
    8.8125   -6.0629    4.8183 O   0  0  0  0  0  0  0  0  0  0  0  0
   -0.9176    1.9637    0.0428 H   0  0  0  0  0  0  0  0  0  0  0  0
    1.1961    3.2267    0.0669 H   0  0  0  0  0  0  0  0  0  0  0  0
    3.3469    2.0281    0.0454 H   0  0  0  0  0  0  0  0  0  0  0  0
    1.2704   -1.6964   -0.0315 H   0  0  0  0  0  0  0  0  0  0  0  0
   -0.8804   -0.4977   -0.0115 H   0  0  0  0  0  0  0  0  0  0  0  0
    3.6414   -1.5851   -0.5410 H   0  0  0  0  0  0  0  0  0  0  0  0
    4.5080   -0.0307   -0.5094 H   0  0  0  0  0  0  0  0  0  0  0  0
    5.2650    0.8425    4.8818 H   0  0  0  0  0  0  0  0  0  0  0  0
    3.6452    0.5995    4.1840 H   0  0  0  0  0  0  0  0  0  0  0  0
    4.2286    1.7538    7.2045 H   0  0  0  0  0  0  0  0  0  0  0  0
    3.7294    1.7953    9.6150 H   0  0  0  0  0  0  0  0  0  0  0  0
    3.1819   -0.2336   10.8342 H   0  0  0  0  0  0  0  0  0  0  0  0
    3.0963   -2.4353    9.7162 H   0  0  0  0  0  0  0  0  0  0  0  0
    3.2588   -3.5453    4.2222 H   0  0  0  0  0  0  0  0  0  0  0  0
    4.2157   -5.6431    4.4873 H   0  0  0  0  0  0  0  0  0  0  0  0
    6.1850   -7.1077    4.6689 H   0  0  0  0  0  0  0  0  0  0  0  0
    6.7458   -2.2105    4.5437 H   0  0  0  0  0  0  0  0  0  0  0  0
   10.6850   -5.1366    4.8246 H   0  0  0  0  0  0  0  0  0  0  0  0
    9.7514   -4.9940    6.3482 H   0  0  0  0  0  0  0  0  0  0  0  0
  1  6  2  0  0  0  0
  1  2  1  0  0  0  0
  1 37  1  0  0  0  0
  2  3  2  0  0  0  0
  2 38  1  0  0  0  0
  3  4  1  0  0  0  0
  3 39  1  0  0  0  0
  4  5  2  0  0  0  0
  4  7  1  0  0  0  0
  5  6  1  0  0  0  0
  5 40  1  0  0  0  0
  6 41  1  0  0  0  0
  7  8  1  0  0  0  0
  7 42  1  0  0  0  0
  7 43  1  0  0  0  0
  8 26  1  0  0  0  0
  8  9  1  0  0  0  0
  9 10  2  0  0  0  0
  9 11  1  0  0  0  0
 11 12  1  0  0  0  0
 11 25  1  0  0  0  0
 11 13  1  0  0  0  0
 13 14  1  0  0  0  0
 13 44  1  0  0  0  0
 13 45  1  0  0  0  0
 14 23  2  0  0  0  0
 14 15  1  0  0  0  0
 15 20  2  0  0  0  0
 15 16  1  0  0  0  0
 16 17  2  0  0  0  0
 16 46  1  0  0  0  0
 17 18  1  0  0  0  0
 17 47  1  0  0  0  0
 18 19  2  0  0  0  0
 18 48  1  0  0  0  0
 19 20  1  0  0  0  0
 19 49  1  0  0  0  0
 20 21  1  0  0  0  0
 21 22  1  0  0  0  0
 21 23  1  0  0  0  0
 23 24  1  0  0  0  0
 24 25  1  0  0  0  0
 24 28  1  0  0  0  0
 24 50  1  0  0  0  0
 25 26  1  0  0  0  0
 26 27  2  0  0  0  0
 28 33  2  0  0  0  0
 28 29  1  0  0  0  0
 29 30  2  0  0  0  0
 29 51  1  0  0  0  0
 30 31  1  0  0  0  0
 30 52  1  0  0  0  0
 31 36  1  0  0  0  0
 31 32  2  0  0  0  0
 32 33  1  0  0  0  0
 32 34  1  0  0  0  0
 33 53  1  0  0  0  0
 34 35  1  0  0  0  0
 35 36  1  0  0  0  0
 35 54  1  0  0  0  0
 35 55  1  0  0  0  0
M  END
$$$$
CHEMBL193603
  -OEChem-07121202283D

 67 72  0     1  0  0  0  0  0999 V2000
   -0.0187    1.5258    0.0104 C   0  0  0  0  0  0  0  0  0  0  0  0
    0.0021   -0.0041    0.0020 C   0  0  0  0  0  0  0  0  0  0  0  0
   -1.3723   -0.5112    0.0124 N   0  0  0  0  0  0  0  0  0  0  0  0
   -1.9821   -0.7407    1.1887 C   0  0  0  0  0  0  0  0  0  0  0  0
   -1.3931   -0.5270    2.2331 O   0  0  0  0  0  0  0  0  0  0  0  0
   -3.3054   -1.2290    1.2110 C   0  0  0  0  0  0  0  0  0  0  0  0
   -3.9630   -1.4669    0.0130 C   0  0  0  0  0  0  0  0  0  0  0  0
   -5.1843   -1.9187    0.3142 N   0  0  0  0  0  0  0  0  0  0  0  0
   -5.3276   -1.9766    1.6136 C   0  0  0  0  0  0  0  0  0  0  0  0
   -4.1957   -1.5613    2.2142 N   0  0  0  0  0  0  0  0  0  0  0  0
   -3.9542   -1.4783    3.6568 C   0  0  0  0  0  0  0  0  0  0  0  0
   -4.3628   -0.1167    4.1570 C   0  0  0  0  0  0  0  0  0  0  0  0
   -3.4448    0.9172    4.1719 C   0  0  0  0  0  0  0  0  0  0  0  0
   -3.8168    2.1661    4.6304 C   0  0  0  0  0  0  0  0  0  0  0  0
   -5.1128    2.3827    5.0755 C   0  0  0  0  0  0  0  0  0  0  0  0
   -6.0321    1.3438    5.0591 C   0  0  0  0  0  0  0  0  0  0  0  0
   -5.6566    0.0981    4.5948 C   0  0  0  0  0  0  0  0  0  0  0  0
   -5.4810    3.6103    5.5274 O   0  0  0  0  0  0  0  0  0  0  0  0
   -6.5707   -2.4380    2.3296 C   0  0  0  0  0  0  0  0  0  0  0  0
   -6.4931   -3.9247    2.5637 C   0  0  0  0  0  0  0  0  0  0  0  0
   -6.9872   -4.8004    1.6151 C   0  0  0  0  0  0  0  0  0  0  0  0
   -6.9159   -6.1641    1.8298 C   0  0  0  0  0  0  0  0  0  0  0  0
   -6.3502   -6.6521    2.9928 C   0  0  0  0  0  0  0  0  0  0  0  0
   -5.8552   -5.7764    3.9410 C   0  0  0  0  0  0  0  0  0  0  0  0
   -5.9226   -4.4127    3.7244 C   0  0  0  0  0  0  0  0  0  0  0  0
   -3.3069   -1.2206   -1.1839 N   0  0  0  0  0  0  0  0  0  0  0  0
   -2.0223   -0.7402   -1.1910 C   0  0  0  0  0  0  0  0  0  0  0  0
   -1.5513   -0.5563   -2.3942 N   0  3  0  0  0  0  0  0  0  0  0  0
   -2.5522   -0.9169   -3.4026 C   0  0  1  0  0  0  0  0  0  0  0  0
   -2.1883   -1.7324   -4.0276 H   0  0  0  0  0  0  0  0  0  0  0  0
   -3.7634   -1.3846   -2.5746 C   0  0  0  0  0  0  0  0  0  0  0  0
   -2.9093    0.2975   -4.2621 C   0  0  0  0  0  0  0  0  0  0  0  0
   -1.7108    0.7039   -5.0802 C   0  0  0  0  0  0  0  0  0  0  0  0
   -0.8033    1.6142   -4.5717 C   0  0  0  0  0  0  0  0  0  0  0  0
    0.2961    1.9870   -5.3222 C   0  0  0  0  0  0  0  0  0  0  0  0
    0.4883    1.4491   -6.5810 C   0  0  0  0  0  0  0  0  0  0  0  0
   -0.4188    0.5381   -7.0892 C   0  0  0  0  0  0  0  0  0  0  0  0
   -1.5159    0.1621   -6.3369 C   0  0  0  0  0  0  0  0  0  0  0  0
    1.0039    1.9031    0.0027 H   0  0  0  0  0  0  0  0  0  0  0  0
   -0.5459    1.8868   -0.8726 H   0  0  0  0  0  0  0  0  0  0  0  0
   -0.5289    1.8773    0.9072 H   0  0  0  0  0  0  0  0  0  0  0  0
    0.5123   -0.3556   -0.8948 H   0  0  0  0  0  0  0  0  0  0  0  0
    0.5293   -0.3651    0.8851 H   0  0  0  0  0  0  0  0  0  0  0  0
   -4.5386   -2.2435    4.1676 H   0  0  0  0  0  0  0  0  0  0  0  0
   -2.8945   -1.6361    3.8575 H   0  0  0  0  0  0  0  0  0  0  0  0
   -2.4361    0.7481    3.8253 H   0  0  0  0  0  0  0  0  0  0  0  0
   -3.0992    2.9732    4.6426 H   0  0  0  0  0  0  0  0  0  0  0  0
   -7.0416    1.5099    5.4051 H   0  0  0  0  0  0  0  0  0  0  0  0
   -6.3731   -0.7098    4.5776 H   0  0  0  0  0  0  0  0  0  0  0  0
   -5.8305    4.1939    4.8401 H   0  0  0  0  0  0  0  0  0  0  0  0
   -6.6508   -1.9231    3.2870 H   0  0  0  0  0  0  0  0  0  0  0  0
   -7.4460   -2.2112    1.7208 H   0  0  0  0  0  0  0  0  0  0  0  0
   -7.4292   -4.4192    0.7064 H   0  0  0  0  0  0  0  0  0  0  0  0
   -7.3026   -6.8483    1.0890 H   0  0  0  0  0  0  0  0  0  0  0  0
   -6.2951   -7.7175    3.1609 H   0  0  0  0  0  0  0  0  0  0  0  0
   -5.4135   -6.1576    4.8498 H   0  0  0  0  0  0  0  0  0  0  0  0
   -5.5326   -3.7286    4.4635 H   0  0  0  0  0  0  0  0  0  0  0  0
   -4.0028   -2.4279   -2.7801 H   0  0  0  0  0  0  0  0  0  0  0  0
   -4.6231   -0.7451   -2.7749 H   0  0  0  0  0  0  0  0  0  0  0  0
   -3.7338    0.0417   -4.9276 H   0  0  0  0  0  0  0  0  0  0  0  0
   -3.2063    1.1244   -3.6170 H   0  0  0  0  0  0  0  0  0  0  0  0
   -0.9534    2.0345   -3.5882 H   0  0  0  0  0  0  0  0  0  0  0  0
    1.0047    2.6988   -4.9251 H   0  0  0  0  0  0  0  0  0  0  0  0
    1.3468    1.7409   -7.1676 H   0  0  0  0  0  0  0  0  0  0  0  0
   -0.2688    0.1181   -8.0728 H   0  0  0  0  0  0  0  0  0  0  0  0
   -2.2225   -0.5525   -6.7324 H   0  0  0  0  0  0  0  0  0  0  0  0
   -0.6614   -0.2260   -2.5937 H   0  0  0  0  0  0  0  0  0  0  0  0
  1  2  1  0  0  0  0
  1 39  1  0  0  0  0
  1 40  1  0  0  0  0
  1 41  1  0  0  0  0
  2  3  1  0  0  0  0
  2 42  1  0  0  0  0
  2 43  1  0  0  0  0
  3 27  1  0  0  0  0
  3  4  1  0  0  0  0
  4  5  2  0  0  0  0
  4  6  1  0  0  0  0
  6 10  1  0  0  0  0
  6  7  2  0  0  0  0
  7  8  1  0  0  0  0
  7 26  1  0  0  0  0
  8  9  2  0  0  0  0
  9 10  1  0  0  0  0
  9 19  1  0  0  0  0
 10 11  1  0  0  0  0
 11 12  1  0  0  0  0
 11 44  1  0  0  0  0
 11 45  1  0  0  0  0
 12 17  2  0  0  0  0
 12 13  1  0  0  0  0
 13 14  2  0  0  0  0
 13 46  1  0  0  0  0
 14 15  1  0  0  0  0
 14 47  1  0  0  0  0
 15 16  2  0  0  0  0
 15 18  1  0  0  0  0
 16 17  1  0  0  0  0
 16 48  1  0  0  0  0
 17 49  1  0  0  0  0
 18 50  1  0  0  0  0
 19 20  1  0  0  0  0
 19 51  1  0  0  0  0
 19 52  1  0  0  0  0
 20 25  2  0  0  0  0
 20 21  1  0  0  0  0
 21 22  2  0  0  0  0
 21 53  1  0  0  0  0
 22 23  1  0  0  0  0
 22 54  1  0  0  0  0
 23 24  2  0  0  0  0
 23 55  1  0  0  0  0
 24 25  1  0  0  0  0
 24 56  1  0  0  0  0
 25 57  1  0  0  0  0
 26 31  1  0  0  0  0
 26 27  1  0  0  0  0
 27 28  2  0  0  0  0
 28 29  1  0  0  0  0
 28 67  1  0  0  0  0
 29 30  1  0  0  0  0
 29 31  1  0  0  0  0
 29 32  1  0  0  0  0
 31 58  1  0  0  0  0
 31 59  1  0  0  0  0
 32 33  1  0  0  0  0
 32 60  1  0  0  0  0
 32 61  1  0  0  0  0
 33 38  2  0  0  0  0
 33 34  1  0  0  0  0
 34 35  2  0  0  0  0
 34 62  1  0  0  0  0
 35 36  1  0  0  0  0
 35 63  1  0  0  0  0
 36 37  2  0  0  0  0
 36 64  1  0  0  0  0
 37 38  1  0  0  0  0
 37 65  1  0  0  0  0
 38 66  1  0  0  0  0
M  CHG  1  28   1
M  END
$$$$
CHEMBL193603
  -OEChem-07121202283D

 68 73  0     1  0  0  0  0  0999 V2000
   -0.0187    1.5258    0.0104 C   0  0  0  0  0  0  0  0  0  0  0  0
    0.0021   -0.0041    0.0020 C   0  0  0  0  0  0  0  0  0  0  0  0
   -1.3723   -0.5112    0.0124 N   0  0  0  0  0  0  0  0  0  0  0  0
   -1.9821   -0.7407    1.1887 C   0  0  0  0  0  0  0  0  0  0  0  0
   -1.3931   -0.5270    2.2331 O   0  0  0  0  0  0  0  0  0  0  0  0
   -3.3054   -1.2290    1.2110 C   0  0  0  0  0  0  0  0  0  0  0  0
   -3.9630   -1.4669    0.0130 C   0  0  0  0  0  0  0  0  0  0  0  0
   -5.1843   -1.9187    0.3142 N   0  3  0  0  0  0  0  0  0  0  0  0
   -5.3276   -1.9766    1.6136 C   0  0  0  0  0  0  0  0  0  0  0  0
   -4.1957   -1.5613    2.2142 N   0  0  0  0  0  0  0  0  0  0  0  0
   -3.9542   -1.4783    3.6568 C   0  0  0  0  0  0  0  0  0  0  0  0
   -4.3628   -0.1167    4.1570 C   0  0  0  0  0  0  0  0  0  0  0  0
   -3.4448    0.9172    4.1719 C   0  0  0  0  0  0  0  0  0  0  0  0
   -3.8168    2.1661    4.6304 C   0  0  0  0  0  0  0  0  0  0  0  0
   -5.1128    2.3827    5.0755 C   0  0  0  0  0  0  0  0  0  0  0  0
   -6.0321    1.3438    5.0591 C   0  0  0  0  0  0  0  0  0  0  0  0
   -5.6566    0.0981    4.5948 C   0  0  0  0  0  0  0  0  0  0  0  0
   -5.4810    3.6103    5.5274 O   0  0  0  0  0  0  0  0  0  0  0  0
   -6.5707   -2.4380    2.3296 C   0  0  0  0  0  0  0  0  0  0  0  0
   -6.5502   -3.9396    2.4547 C   0  0  0  0  0  0  0  0  0  0  0  0
   -7.1048   -4.7237    1.4604 C   0  0  0  0  0  0  0  0  0  0  0  0
   -7.0860   -6.1011    1.5751 C   0  0  0  0  0  0  0  0  0  0  0  0
   -6.5123   -6.6945    2.6840 C   0  0  0  0  0  0  0  0  0  0  0  0
   -5.9570   -5.9105    3.6779 C   0  0  0  0  0  0  0  0  0  0  0  0
   -5.9719   -4.5332    3.5611 C   0  0  0  0  0  0  0  0  0  0  0  0
   -3.3069   -1.2206   -1.1839 N   0  0  0  0  0  0  0  0  0  0  0  0
   -2.0223   -0.7402   -1.1910 C   0  0  0  0  0  0  0  0  0  0  0  0
   -1.5513   -0.5563   -2.3942 N   0  3  0  0  0  0  0  0  0  0  0  0
   -2.5522   -0.9169   -3.4026 C   0  0  1  0  0  0  0  0  0  0  0  0
   -2.1883   -1.7324   -4.0276 H   0  0  0  0  0  0  0  0  0  0  0  0
   -3.7634   -1.3846   -2.5746 C   0  0  0  0  0  0  0  0  0  0  0  0
   -2.9093    0.2975   -4.2621 C   0  0  0  0  0  0  0  0  0  0  0  0
   -1.7108    0.7039   -5.0802 C   0  0  0  0  0  0  0  0  0  0  0  0
   -0.8033    1.6142   -4.5717 C   0  0  0  0  0  0  0  0  0  0  0  0
    0.2961    1.9870   -5.3222 C   0  0  0  0  0  0  0  0  0  0  0  0
    0.4883    1.4491   -6.5810 C   0  0  0  0  0  0  0  0  0  0  0  0
   -0.4188    0.5381   -7.0892 C   0  0  0  0  0  0  0  0  0  0  0  0
   -1.5159    0.1621   -6.3369 C   0  0  0  0  0  0  0  0  0  0  0  0
    1.0039    1.9031    0.0027 H   0  0  0  0  0  0  0  0  0  0  0  0
   -0.5459    1.8868   -0.8726 H   0  0  0  0  0  0  0  0  0  0  0  0
   -0.5289    1.8773    0.9072 H   0  0  0  0  0  0  0  0  0  0  0  0
    0.5123   -0.3556   -0.8948 H   0  0  0  0  0  0  0  0  0  0  0  0
    0.5293   -0.3651    0.8851 H   0  0  0  0  0  0  0  0  0  0  0  0
   -4.5386   -2.2435    4.1676 H   0  0  0  0  0  0  0  0  0  0  0  0
   -2.8945   -1.6361    3.8575 H   0  0  0  0  0  0  0  0  0  0  0  0
   -2.4361    0.7481    3.8253 H   0  0  0  0  0  0  0  0  0  0  0  0
   -3.0992    2.9732    4.6426 H   0  0  0  0  0  0  0  0  0  0  0  0
   -7.0416    1.5099    5.4051 H   0  0  0  0  0  0  0  0  0  0  0  0
   -6.3731   -0.7098    4.5776 H   0  0  0  0  0  0  0  0  0  0  0  0
   -5.8305    4.1939    4.8401 H   0  0  0  0  0  0  0  0  0  0  0  0
   -6.6048   -1.9910    3.3232 H   0  0  0  0  0  0  0  0  0  0  0  0
   -7.4506   -2.1325    1.7635 H   0  0  0  0  0  0  0  0  0  0  0  0
   -7.5530   -4.2600    0.5940 H   0  0  0  0  0  0  0  0  0  0  0  0
   -7.5198   -6.7136    0.7986 H   0  0  0  0  0  0  0  0  0  0  0  0
   -6.4982   -7.7707    2.7740 H   0  0  0  0  0  0  0  0  0  0  0  0
   -5.5091   -6.3742    4.5444 H   0  0  0  0  0  0  0  0  0  0  0  0
   -5.5348   -3.9208    4.3359 H   0  0  0  0  0  0  0  0  0  0  0  0
   -4.0028   -2.4279   -2.7801 H   0  0  0  0  0  0  0  0  0  0  0  0
   -4.6231   -0.7451   -2.7749 H   0  0  0  0  0  0  0  0  0  0  0  0
   -3.7338    0.0417   -4.9276 H   0  0  0  0  0  0  0  0  0  0  0  0
   -3.2063    1.1244   -3.6170 H   0  0  0  0  0  0  0  0  0  0  0  0
   -0.9534    2.0345   -3.5882 H   0  0  0  0  0  0  0  0  0  0  0  0
    1.0047    2.6988   -4.9251 H   0  0  0  0  0  0  0  0  0  0  0  0
    1.3468    1.7409   -7.1676 H   0  0  0  0  0  0  0  0  0  0  0  0
   -0.2688    0.1181   -8.0728 H   0  0  0  0  0  0  0  0  0  0  0  0
   -2.2225   -0.5525   -6.7324 H   0  0  0  0  0  0  0  0  0  0  0  0
   -0.6614   -0.2260   -2.5937 H   0  0  0  0  0  0  0  0  0  0  0  0
   -5.8628   -2.1662   -0.3334 H   0  0  0  0  0  0  0  0  0  0  0  0
  1  2  1  0  0  0  0
  1 39  1  0  0  0  0
  1 40  1  0  0  0  0
  1 41  1  0  0  0  0
  2  3  1  0  0  0  0
  2 42  1  0  0  0  0
  2 43  1  0  0  0  0
  3 27  1  0  0  0  0
  3  4  1  0  0  0  0
  4  5  2  0  0  0  0
  4  6  1  0  0  0  0
  6 10  1  0  0  0  0
  6  7  2  0  0  0  0
  7  8  1  0  0  0  0
  7 26  1  0  0  0  0
  8  9  2  0  0  0  0
  8 68  1  0  0  0  0
  9 10  1  0  0  0  0
  9 19  1  0  0  0  0
 10 11  1  0  0  0  0
 11 12  1  0  0  0  0
 11 44  1  0  0  0  0
 11 45  1  0  0  0  0
 12 17  2  0  0  0  0
 12 13  1  0  0  0  0
 13 14  2  0  0  0  0
 13 46  1  0  0  0  0
 14 15  1  0  0  0  0
 14 47  1  0  0  0  0
 15 16  2  0  0  0  0
 15 18  1  0  0  0  0
 16 17  1  0  0  0  0
 16 48  1  0  0  0  0
 17 49  1  0  0  0  0
 18 50  1  0  0  0  0
 19 20  1  0  0  0  0
 19 51  1  0  0  0  0
 19 52  1  0  0  0  0
 20 25  2  0  0  0  0
 20 21  1  0  0  0  0
 21 22  2  0  0  0  0
 21 53  1  0  0  0  0
 22 23  1  0  0  0  0
 22 54  1  0  0  0  0
 23 24  2  0  0  0  0
 23 55  1  0  0  0  0
 24 25  1  0  0  0  0
 24 56  1  0  0  0  0
 25 57  1  0  0  0  0
 26 31  1  0  0  0  0
 26 27  1  0  0  0  0
 27 28  2  0  0  0  0
 28 29  1  0  0  0  0
 28 67  1  0  0  0  0
 29 30  1  0  0  0  0
 29 31  1  0  0  0  0
 29 32  1  0  0  0  0
 31 58  1  0  0  0  0
 31 59  1  0  0  0  0
 32 33  1  0  0  0  0
 32 60  1  0  0  0  0
 32 61  1  0  0  0  0
 33 38  2  0  0  0  0
 33 34  1  0  0  0  0
 34 35  2  0  0  0  0
 34 62  1  0  0  0  0
 35 36  1  0  0  0  0
 35 63  1  0  0  0  0
 36 37  2  0  0  0  0
 36 64  1  0  0  0  0
 37 38  1  0  0  0  0
 37 65  1  0  0  0  0
 38 66  1  0  0  0  0
M  CHG  2   8   1  28   1
M  END
$$$$
CHEMBL558338
  -OEChem-07121202283D

 66 70  0     0  0  0  0  0  0999 V2000
   -0.0173    1.4248    0.0099 C   0  0  0  0  0  0  0  0  0  0  0  0
    0.0021   -0.0041    0.0020 O   0  0  0  0  0  0  0  0  0  0  0  0
   -1.1959   -0.6351    0.0101 C   0  0  0  0  0  0  0  0  0  0  0  0
   -2.3039    0.0894    0.0191 N   0  0  0  0  0  0  0  0  0  0  0  0
   -3.4920   -0.4881    0.0267 C   0  0  0  0  0  0  0  0  0  0  0  0
   -3.5674   -1.8844    0.0251 C   0  0  0  0  0  0  0  0  0  0  0  0
   -2.3733   -2.6120    0.0155 C   0  0  0  0  0  0  0  0  0  0  0  0
   -1.2251   -1.9587    0.0032 N   0  0  0  0  0  0  0  0  0  0  0  0
   -4.8781   -2.5749    0.0339 C   0  0  0  0  0  0  0  0  0  0  0  0
   -4.9186   -3.9724    0.0378 C   0  0  0  0  0  0  0  0  0  0  0  0
   -6.1268   -4.6124    0.0459 C   0  0  0  0  0  0  0  0  0  0  0  0
   -7.2980   -3.8346    0.0501 C   0  0  0  0  0  0  0  0  0  0  0  0
   -7.1866   -2.4314    0.0458 C   0  0  0  0  0  0  0  0  0  0  0  0
   -5.9923   -1.8573    0.0433 N   0  0  0  0  0  0  0  0  0  0  0  0
   -8.3257   -1.6514    0.0498 N   0  0  0  0  0  0  0  0  0  0  0  0
   -9.5349   -2.2521    0.0578 C   0  0  0  0  0  0  0  0  0  0  0  0
  -10.5536   -1.5859    0.0611 O   0  0  0  0  0  0  0  0  0  0  0  0
   -9.6067   -3.7246    0.0621 C   0  0  0  0  0  0  0  0  0  0  0  0
   -8.5050   -4.4327    0.0585 N   0  0  0  0  0  0  0  0  0  0  0  0
  -10.8372   -4.3582    0.0708 N   0  0  0  0  0  0  0  0  0  0  0  0
  -10.9077   -5.8215    0.0750 C   0  0  0  0  0  0  0  0  0  0  0  0
  -12.3730   -6.2614    0.0847 C   0  0  0  0  0  0  0  0  0  0  0  0
  -13.0287   -5.8308    1.4003 C   0  0  0  0  0  0  0  0  0  0  0  0
  -14.4708   -6.3434    1.4345 C   0  0  0  0  0  0  0  0  0  0  0  0
  -14.4734   -7.7647    1.2859 O   0  0  0  0  0  0  0  0  0  0  0  0
  -13.9154   -8.2235    0.0529 C   0  0  0  0  0  0  0  0  0  0  0  0
  -12.4510   -7.7864   -0.0368 C   0  0  0  0  0  0  0  0  0  0  0  0
   -8.2236   -0.1900    0.0459 C   0  0  0  0  0  0  0  0  0  0  0  0
   -8.1955    0.3154   -1.3979 C   0  0  0  0  0  0  0  0  0  0  0  0
   -6.9230   -0.1810   -2.0874 C   0  0  0  0  0  0  0  0  0  0  0  0
   -6.8949    0.3244   -3.5312 C   0  0  0  0  0  0  0  0  0  0  0  0
   -6.9141    1.8543   -3.5365 C   0  0  0  0  0  0  0  0  0  0  0  0
   -8.1866    2.3507   -2.8471 C   0  0  0  0  0  0  0  0  0  0  0  0
   -8.2147    1.8453   -1.4032 C   0  0  0  0  0  0  0  0  0  0  0  0
    1.0053    1.8021    0.0021 H   0  0  0  0  0  0  0  0  0  0  0  0
   -0.5445    1.7859   -0.8732 H   0  0  0  0  0  0  0  0  0  0  0  0
   -0.5275    1.7763    0.9067 H   0  0  0  0  0  0  0  0  0  0  0  0
   -4.3917    0.1093    0.0343 H   0  0  0  0  0  0  0  0  0  0  0  0
   -2.3894   -3.6919    0.0144 H   0  0  0  0  0  0  0  0  0  0  0  0
   -4.0014   -4.5427    0.0341 H   0  0  0  0  0  0  0  0  0  0  0  0
   -6.1803   -5.6910    0.0487 H   0  0  0  0  0  0  0  0  0  0  0  0
  -11.6529   -3.8333    0.0742 H   0  0  0  0  0  0  0  0  0  0  0  0
  -10.4171   -6.2114   -0.8168 H   0  0  0  0  0  0  0  0  0  0  0  0
  -10.4068   -6.2068    0.9631 H   0  0  0  0  0  0  0  0  0  0  0  0
  -12.8973   -5.8017   -0.7531 H   0  0  0  0  0  0  0  0  0  0  0  0
  -12.4729   -6.2506    2.2388 H   0  0  0  0  0  0  0  0  0  0  0  0
  -13.0271   -4.7430    1.4692 H   0  0  0  0  0  0  0  0  0  0  0  0
  -14.9290   -6.0767    2.3869 H   0  0  0  0  0  0  0  0  0  0  0  0
  -15.0366   -5.8917    0.6196 H   0  0  0  0  0  0  0  0  0  0  0  0
  -13.9734   -9.3111    0.0100 H   0  0  0  0  0  0  0  0  0  0  0  0
  -14.4739   -7.7964   -0.7801 H   0  0  0  0  0  0  0  0  0  0  0  0
  -12.0361   -8.0971   -0.9956 H   0  0  0  0  0  0  0  0  0  0  0  0
  -11.8835   -8.2457    0.7727 H   0  0  0  0  0  0  0  0  0  0  0  0
   -9.0835    0.2357    0.5631 H   0  0  0  0  0  0  0  0  0  0  0  0
   -7.3079    0.1117    0.5543 H   0  0  0  0  0  0  0  0  0  0  0  0
   -9.0683   -0.0607   -1.9316 H   0  0  0  0  0  0  0  0  0  0  0  0
   -6.0503    0.1952   -1.5537 H   0  0  0  0  0  0  0  0  0  0  0  0
   -6.9093   -1.2709   -2.0836 H   0  0  0  0  0  0  0  0  0  0  0  0
   -5.9884   -0.0292   -4.0224 H   0  0  0  0  0  0  0  0  0  0  0  0
   -7.7677   -0.0517   -4.0649 H   0  0  0  0  0  0  0  0  0  0  0  0
   -6.0414    2.2305   -3.0028 H   0  0  0  0  0  0  0  0  0  0  0  0
   -6.8941    2.2144   -4.5651 H   0  0  0  0  0  0  0  0  0  0  0  0
   -8.2003    3.4406   -2.8508 H   0  0  0  0  0  0  0  0  0  0  0  0
   -9.0594    1.9746   -3.3808 H   0  0  0  0  0  0  0  0  0  0  0  0
   -9.1213    2.1990   -0.9121 H   0  0  0  0  0  0  0  0  0  0  0  0
   -7.3420    2.2215   -0.8695 H   0  0  0  0  0  0  0  0  0  0  0  0
  1  2  1  0  0  0  0
  1 35  1  0  0  0  0
  1 36  1  0  0  0  0
  1 37  1  0  0  0  0
  2  3  1  0  0  0  0
  3  8  2  0  0  0  0
  3  4  1  0  0  0  0
  4  5  2  0  0  0  0
  5  6  1  0  0  0  0
  5 38  1  0  0  0  0
  6  7  2  0  0  0  0
  6  9  1  0  0  0  0
  7  8  1  0  0  0  0
  7 39  1  0  0  0  0
  9 14  2  0  0  0  0
  9 10  1  0  0  0  0
 10 11  2  0  0  0  0
 10 40  1  0  0  0  0
 11 12  1  0  0  0  0
 11 41  1  0  0  0  0
 12 19  1  0  0  0  0
 12 13  2  0  0  0  0
 13 14  1  0  0  0  0
 13 15  1  0  0  0  0
 15 16  1  0  0  0  0
 15 28  1  0  0  0  0
 16 17  2  0  0  0  0
 16 18  1  0  0  0  0
 18 19  2  0  0  0  0
 18 20  1  0  0  0  0
 20 21  1  0  0  0  0
 20 42  1  0  0  0  0
 21 22  1  0  0  0  0
 21 43  1  0  0  0  0
 21 44  1  0  0  0  0
 22 27  1  0  0  0  0
 22 23  1  0  0  0  0
 22 45  1  0  0  0  0
 23 24  1  0  0  0  0
 23 46  1  0  0  0  0
 23 47  1  0  0  0  0
 24 25  1  0  0  0  0
 24 48  1  0  0  0  0
 24 49  1  0  0  0  0
 25 26  1  0  0  0  0
 26 27  1  0  0  0  0
 26 50  1  0  0  0  0
 26 51  1  0  0  0  0
 27 52  1  0  0  0  0
 27 53  1  0  0  0  0
 28 29  1  0  0  0  0
 28 54  1  0  0  0  0
 28 55  1  0  0  0  0
 29 34  1  0  0  0  0
 29 30  1  0  0  0  0
 29 56  1  0  0  0  0
 30 31  1  0  0  0  0
 30 57  1  0  0  0  0
 30 58  1  0  0  0  0
 31 32  1  0  0  0  0
 31 59  1  0  0  0  0
 31 60  1  0  0  0  0
 32 33  1  0  0  0  0
 32 61  1  0  0  0  0
 32 62  1  0  0  0  0
 33 34  1  0  0  0  0
 33 63  1  0  0  0  0
 33 64  1  0  0  0  0
 34 65  1  0  0  0  0
 34 66  1  0  0  0  0
M  END
$$$$
CHEMBL566820
  -OEChem-07121202283D

 64 67  0     0  0  0  0  0  0999 V2000
   -0.0187    1.5258    0.0104 C   0  0  0  0  0  0  0  0  0  0  0  0
    0.0021   -0.0041    0.0020 C   0  0  0  0  0  0  0  0  0  0  0  0
    0.7182   -0.4975   -1.2568 C   0  0  0  0  0  0  0  0  0  0  0  0
    0.7376   -1.9263   -1.2646 O   0  0  0  0  0  0  0  0  0  0  0  0
    1.3873   -2.4925   -2.4045 C   0  0  0  0  0  0  0  0  0  0  0  0
    1.3486   -4.0190   -2.3077 C   0  0  0  0  0  0  0  0  0  0  0  0
   -0.0404   -4.4782   -2.3855 N   0  0  0  0  0  0  0  0  0  0  0  0
   -0.7994   -4.6151   -1.2378 C   0  0  0  0  0  0  0  0  0  0  0  0
   -0.2492   -4.3176    0.0047 C   0  0  0  0  0  0  0  0  0  0  0  0
   -1.0510   -4.4695    1.1355 C   0  0  0  0  0  0  0  0  0  0  0  0
   -2.3695   -4.9120    0.9826 C   0  0  0  0  0  0  0  0  0  0  0  0
   -2.8608   -5.1849   -0.2024 N   0  0  0  0  0  0  0  0  0  0  0  0
   -2.1331   -5.0552   -1.3150 C   0  0  0  0  0  0  0  0  0  0  0  0
   -2.6862   -5.3486   -2.5101 N   0  0  0  0  0  0  0  0  0  0  0  0
   -2.0014   -5.2326   -3.6195 C   0  0  0  0  0  0  0  0  0  0  0  0
   -0.6006   -4.7688   -3.5803 C   0  0  0  0  0  0  0  0  0  0  0  0
    0.0411   -4.6535   -4.6080 O   0  0  0  0  0  0  0  0  0  0  0  0
   -2.5923   -5.5396   -4.8297 N   0  0  0  0  0  0  0  0  0  0  0  0
   -3.9842   -5.9947   -4.8706 C   0  0  0  0  0  0  0  0  0  0  0  0
   -4.0344   -7.5047   -4.6298 C   0  0  0  0  0  0  0  0  0  0  0  0
   -5.4881   -7.9800   -4.6726 C   0  0  0  0  0  0  0  0  0  0  0  0
   -6.0885   -7.6620   -6.0434 C   0  0  0  0  0  0  0  0  0  0  0  0
   -6.0383   -6.1519   -6.2843 C   0  0  0  0  0  0  0  0  0  0  0  0
   -4.5846   -5.6766   -6.2415 C   0  0  0  0  0  0  0  0  0  0  0  0
   -7.4462   -8.1058   -6.0834 O   0  0  0  0  0  0  0  0  0  0  0  0
   -0.5128   -4.1663    2.4834 C   0  0  0  0  0  0  0  0  0  0  0  0
   -1.3144   -4.3238    3.6200 C   0  0  0  0  0  0  0  0  0  0  0  0
   -0.7688   -4.0288    4.8541 C   0  0  0  0  0  0  0  0  0  0  0  0
    0.5480   -3.5887    4.9269 C   0  0  0  0  0  0  0  0  0  0  0  0
    1.2796   -3.4502    3.8333 N   0  0  0  0  0  0  0  0  0  0  0  0
    0.7994   -3.7263    2.6374 C   0  0  0  0  0  0  0  0  0  0  0  0
    1.0899   -3.2968    6.1356 O   0  0  0  0  0  0  0  0  0  0  0  0
    2.4469   -2.8491    6.1472 C   0  0  0  0  0  0  0  0  0  0  0  0
    1.0039    1.9031    0.0027 H   0  0  0  0  0  0  0  0  0  0  0  0
   -0.5459    1.8868   -0.8726 H   0  0  0  0  0  0  0  0  0  0  0  0
   -0.5289    1.8773    0.9072 H   0  0  0  0  0  0  0  0  0  0  0  0
    0.5293   -0.3651    0.8851 H   0  0  0  0  0  0  0  0  0  0  0  0
   -1.0205   -0.3814    0.0098 H   0  0  0  0  0  0  0  0  0  0  0  0
    0.1910   -0.1364   -2.1398 H   0  0  0  0  0  0  0  0  0  0  0  0
    1.7408   -0.1202   -1.2645 H   0  0  0  0  0  0  0  0  0  0  0  0
    0.8740   -2.1729   -3.3114 H   0  0  0  0  0  0  0  0  0  0  0  0
    2.4238   -2.1566   -2.4361 H   0  0  0  0  0  0  0  0  0  0  0  0
    1.9203   -4.4498   -3.1297 H   0  0  0  0  0  0  0  0  0  0  0  0
    1.7828   -4.3340   -1.3589 H   0  0  0  0  0  0  0  0  0  0  0  0
    0.7724   -3.9781    0.0914 H   0  0  0  0  0  0  0  0  0  0  0  0
   -2.9936   -5.0314    1.8559 H   0  0  0  0  0  0  0  0  0  0  0  0
   -2.0856   -5.4539   -5.6524 H   0  0  0  0  0  0  0  0  0  0  0  0
   -4.5564   -5.4840   -4.0961 H   0  0  0  0  0  0  0  0  0  0  0  0
   -3.4622   -8.0154   -5.4043 H   0  0  0  0  0  0  0  0  0  0  0  0
   -3.6067   -7.7313   -3.6531 H   0  0  0  0  0  0  0  0  0  0  0  0
   -5.5238   -9.0558   -4.5010 H   0  0  0  0  0  0  0  0  0  0  0  0
   -6.0602   -7.4693   -3.8980 H   0  0  0  0  0  0  0  0  0  0  0  0
   -5.5163   -8.1727   -6.8180 H   0  0  0  0  0  0  0  0  0  0  0  0
   -6.4660   -5.9253   -7.2609 H   0  0  0  0  0  0  0  0  0  0  0  0
   -6.6105   -5.6412   -5.5097 H   0  0  0  0  0  0  0  0  0  0  0  0
   -4.5489   -4.6008   -6.4131 H   0  0  0  0  0  0  0  0  0  0  0  0
   -4.0124   -6.1873   -7.0161 H   0  0  0  0  0  0  0  0  0  0  0  0
   -7.8908   -7.9363   -6.9252 H   0  0  0  0  0  0  0  0  0  0  0  0
   -2.3348   -4.6673    3.5340 H   0  0  0  0  0  0  0  0  0  0  0  0
   -1.3585   -4.1385    5.7523 H   0  0  0  0  0  0  0  0  0  0  0  0
    1.4284   -3.6058    1.7678 H   0  0  0  0  0  0  0  0  0  0  0  0
    3.0873   -3.6194    5.7175 H   0  0  0  0  0  0  0  0  0  0  0  0
    2.5331   -1.9353    5.5592 H   0  0  0  0  0  0  0  0  0  0  0  0
    2.7555   -2.6511    7.1737 H   0  0  0  0  0  0  0  0  0  0  0  0
  1  2  1  0  0  0  0
  1 34  1  0  0  0  0
  1 35  1  0  0  0  0
  1 36  1  0  0  0  0
  2  3  1  0  0  0  0
  2 37  1  0  0  0  0
  2 38  1  0  0  0  0
  3  4  1  0  0  0  0
  3 39  1  0  0  0  0
  3 40  1  0  0  0  0
  4  5  1  0  0  0  0
  5  6  1  0  0  0  0
  5 41  1  0  0  0  0
  5 42  1  0  0  0  0
  6  7  1  0  0  0  0
  6 43  1  0  0  0  0
  6 44  1  0  0  0  0
  7 16  1  0  0  0  0
  7  8  1  0  0  0  0
  8 13  2  0  0  0  0
  8  9  1  0  0  0  0
  9 10  2  0  0  0  0
  9 45  1  0  0  0  0
 10 11  1  0  0  0  0
 10 26  1  0  0  0  0
 11 12  2  0  0  0  0
 11 46  1  0  0  0  0
 12 13  1  0  0  0  0
 13 14  1  0  0  0  0
 14 15  2  0  0  0  0
 15 16  1  0  0  0  0
 15 18  1  0  0  0  0
 16 17  2  0  0  0  0
 18 19  1  0  0  0  0
 18 47  1  0  0  0  0
 19 24  1  0  0  0  0
 19 20  1  0  0  0  0
 19 48  1  0  0  0  0
 20 21  1  0  0  0  0
 20 49  1  0  0  0  0
 20 50  1  0  0  0  0
 21 22  1  0  0  0  0
 21 51  1  0  0  0  0
 21 52  1  0  0  0  0
 22 23  1  0  0  0  0
 22 25  1  0  0  0  0
 22 53  1  0  0  0  0
 23 24  1  0  0  0  0
 23 54  1  0  0  0  0
 23 55  1  0  0  0  0
 24 56  1  0  0  0  0
 24 57  1  0  0  0  0
 25 58  1  0  0  0  0
 26 31  2  0  0  0  0
 26 27  1  0  0  0  0
 27 28  2  0  0  0  0
 27 59  1  0  0  0  0
 28 29  1  0  0  0  0
 28 60  1  0  0  0  0
 29 30  2  0  0  0  0
 29 32  1  0  0  0  0
 30 31  1  0  0  0  0
 31 61  1  0  0  0  0
 32 33  1  0  0  0  0
 33 62  1  0  0  0  0
 33 63  1  0  0  0  0
 33 64  1  0  0  0  0
M  END
$$$$
CHEMBL23990
  -OEChem-07121202283D

 70 73  0     0  0  0  0  0  0999 V2000
   -0.0200    1.4846   -0.0003 C   0  0  0  0  0  0  0  0  0  0  0  0
   -0.0158    0.0556   -0.0032 O   0  0  0  0  0  0  0  0  0  0  0  0
    0.5834   -0.5573   -1.0575 C   0  0  0  0  0  0  0  0  0  0  0  0
    1.1488    0.1969   -2.0449 C   0  0  0  0  0  0  0  0  0  0  0  0
    1.7707   -0.4294   -3.1391 C   0  0  0  0  0  0  0  0  0  0  0  0
    2.3546    0.3440   -4.1586 C   0  0  0  0  0  0  0  0  0  0  0  0
    2.9655   -0.2690   -5.2345 C   0  0  0  0  0  0  0  0  0  0  0  0
    3.0069   -1.7288   -5.3153 C   0  0  0  0  0  0  0  0  0  0  0  0
    2.4264   -2.4919   -4.3006 C   0  0  0  0  0  0  0  0  0  0  0  0
    1.8044   -1.8445   -3.2053 C   0  0  0  0  0  0  0  0  0  0  0  0
    1.2171   -2.5982   -2.1784 C   0  0  0  0  0  0  0  0  0  0  0  0
    0.6194   -1.9580   -1.1167 C   0  0  0  0  0  0  0  0  0  0  0  0
    0.0549   -2.6892   -0.1203 O   0  0  0  0  0  0  0  0  0  0  0  0
    0.1251   -4.1115   -0.2395 C   0  0  0  0  0  0  0  0  0  0  0  0
    2.4602   -3.9678   -4.3693 C   0  0  0  0  0  0  0  0  0  0  0  0
    1.2723   -4.6890   -4.5064 C   0  0  0  0  0  0  0  0  0  0  0  0
    1.3066   -6.0701   -4.5704 C   0  0  0  0  0  0  0  0  0  0  0  0
    2.5238   -6.7413   -4.4979 C   0  0  0  0  0  0  0  0  0  0  0  0
    3.7091   -6.0248   -4.3609 C   0  0  0  0  0  0  0  0  0  0  0  0
    3.6806   -4.6432   -4.3031 C   0  0  0  0  0  0  0  0  0  0  0  0
    4.8968   -6.6835   -4.2899 O   0  0  0  0  0  0  0  0  0  0  0  0
    6.0738   -5.8854   -4.1496 C   0  0  0  0  0  0  0  0  0  0  0  0
    2.5549   -8.0993   -4.5606 O   0  0  0  0  0  0  0  0  0  0  0  0
    2.6788   -8.6862   -5.8577 C   0  0  0  0  0  0  0  0  0  0  0  0
    0.1501   -6.7730   -4.7038 O   0  0  0  0  0  0  0  0  0  0  0  0
   -1.0626   -6.0201   -4.7715 C   0  0  0  0  0  0  0  0  0  0  0  0
    3.6557   -2.3889   -6.4591 C   0  0  0  0  0  0  0  0  0  0  0  0
    4.8386   -2.6645   -6.4108 O   0  0  0  0  0  0  0  0  0  0  0  0
    2.9383   -2.6880   -7.5606 O   0  0  0  0  0  0  0  0  0  0  0  0
    3.6326   -3.3284   -8.6329 C   0  0  0  0  0  0  0  0  0  0  0  0
    3.5759    0.5482   -6.3023 C   0  0  0  0  0  0  0  0  0  0  0  0
    3.2505    0.3758   -7.4610 O   0  0  0  0  0  0  0  0  0  0  0  0
    4.4939    1.4851   -5.9925 N   0  0  0  0  0  0  0  0  0  0  0  0
    4.9892    1.6130   -4.6159 C   0  0  0  0  0  0  0  0  0  0  0  0
    6.5140    1.4457   -4.6222 C   0  0  0  0  0  0  0  0  0  0  0  0
    7.0895    2.3476   -5.6919 C   0  0  0  0  0  0  0  0  0  0  0  0
    7.9700    3.1320   -5.4315 O   0  0  0  0  0  0  0  0  0  0  0  0
    6.5356    2.2426   -7.0959 C   0  0  0  0  0  0  0  0  0  0  0  0
    5.0147    2.3859   -7.0288 C   0  0  0  0  0  0  0  0  0  0  0  0
    1.0066    1.8509   -0.0073 H   0  0  0  0  0  0  0  0  0  0  0  0
   -0.5416    1.8482   -0.8856 H   0  0  0  0  0  0  0  0  0  0  0  0
   -0.5281    1.8446    0.8943 H   0  0  0  0  0  0  0  0  0  0  0  0
    1.1180    1.2748   -1.9857 H   0  0  0  0  0  0  0  0  0  0  0  0
    2.3246    1.4219   -4.0998 H   0  0  0  0  0  0  0  0  0  0  0  0
    1.2368   -3.6773   -2.2190 H   0  0  0  0  0  0  0  0  0  0  0  0
   -0.3620   -4.5726    0.6197 H   0  0  0  0  0  0  0  0  0  0  0  0
   -0.3786   -4.4247   -1.1540 H   0  0  0  0  0  0  0  0  0  0  0  0
    1.1693   -4.4220   -0.2752 H   0  0  0  0  0  0  0  0  0  0  0  0
    0.3275   -4.1687   -4.5619 H   0  0  0  0  0  0  0  0  0  0  0  0
    4.6011   -4.0875   -4.2016 H   0  0  0  0  0  0  0  0  0  0  0  0
    6.9491   -6.5335   -4.1051 H   0  0  0  0  0  0  0  0  0  0  0  0
    6.1617   -5.2143   -5.0040 H   0  0  0  0  0  0  0  0  0  0  0  0
    6.0085   -5.2996   -3.2327 H   0  0  0  0  0  0  0  0  0  0  0  0
    2.6913   -9.7722   -5.7654 H   0  0  0  0  0  0  0  0  0  0  0  0
    1.8334   -8.3838   -6.4756 H   0  0  0  0  0  0  0  0  0  0  0  0
    3.6063   -8.3503   -6.3213 H   0  0  0  0  0  0  0  0  0  0  0  0
   -1.1787   -5.4356   -3.8588 H   0  0  0  0  0  0  0  0  0  0  0  0
   -1.0266   -5.3497   -5.6302 H   0  0  0  0  0  0  0  0  0  0  0  0
   -1.9074   -6.7007   -4.8771 H   0  0  0  0  0  0  0  0  0  0  0  0
    4.0438   -4.2760   -8.2850 H   0  0  0  0  0  0  0  0  0  0  0  0
    2.9409   -3.5125   -9.4550 H   0  0  0  0  0  0  0  0  0  0  0  0
    4.4426   -2.6852   -8.9768 H   0  0  0  0  0  0  0  0  0  0  0  0
    4.7312    2.5972   -4.2247 H   0  0  0  0  0  0  0  0  0  0  0  0
    4.5394    0.8403   -3.9924 H   0  0  0  0  0  0  0  0  0  0  0  0
    6.9180    1.7260   -3.6494 H   0  0  0  0  0  0  0  0  0  0  0  0
    6.7684    0.4086   -4.8407 H   0  0  0  0  0  0  0  0  0  0  0  0
    6.9535    3.0359   -7.7156 H   0  0  0  0  0  0  0  0  0  0  0  0
    6.7919    1.2716   -7.5198 H   0  0  0  0  0  0  0  0  0  0  0  0
    4.5818    2.1220   -7.9937 H   0  0  0  0  0  0  0  0  0  0  0  0
    4.7583    3.4158   -6.7803 H   0  0  0  0  0  0  0  0  0  0  0  0
  1  2  1  0  0  0  0
  1 40  1  0  0  0  0
  1 41  1  0  0  0  0
  1 42  1  0  0  0  0
  2  3  1  0  0  0  0
  3 12  2  0  0  0  0
  3  4  1  0  0  0  0
  4  5  2  0  0  0  0
  4 43  1  0  0  0  0
  5 10  1  0  0  0  0
  5  6  1  0  0  0  0
  6  7  2  0  0  0  0
  6 44  1  0  0  0  0
  7  8  1  0  0  0  0
  7 31  1  0  0  0  0
  8  9  2  0  0  0  0
  8 27  1  0  0  0  0
  9 10  1  0  0  0  0
  9 15  1  0  0  0  0
 10 11  2  0  0  0  0
 11 12  1  0  0  0  0
 11 45  1  0  0  0  0
 12 13  1  0  0  0  0
 13 14  1  0  0  0  0
 14 46  1  0  0  0  0
 14 47  1  0  0  0  0
 14 48  1  0  0  0  0
 15 20  2  0  0  0  0
 15 16  1  0  0  0  0
 16 17  2  0  0  0  0
 16 49  1  0  0  0  0
 17 18  1  0  0  0  0
 17 25  1  0  0  0  0
 18 19  2  0  0  0  0
 18 23  1  0  0  0  0
 19 20  1  0  0  0  0
 19 21  1  0  0  0  0
 20 50  1  0  0  0  0
 21 22  1  0  0  0  0
 22 51  1  0  0  0  0
 22 52  1  0  0  0  0
 22 53  1  0  0  0  0
 23 24  1  0  0  0  0
 24 54  1  0  0  0  0
 24 55  1  0  0  0  0
 24 56  1  0  0  0  0
 25 26  1  0  0  0  0
 26 57  1  0  0  0  0
 26 58  1  0  0  0  0
 26 59  1  0  0  0  0
 27 28  2  0  0  0  0
 27 29  1  0  0  0  0
 29 30  1  0  0  0  0
 30 60  1  0  0  0  0
 30 61  1  0  0  0  0
 30 62  1  0  0  0  0
 31 32  2  0  0  0  0
 31 33  1  0  0  0  0
 33 39  1  0  0  0  0
 33 34  1  0  0  0  0
 34 35  1  0  0  0  0
 34 63  1  0  0  0  0
 34 64  1  0  0  0  0
 35 36  1  0  0  0  0
 35 65  1  0  0  0  0
 35 66  1  0  0  0  0
 36 37  2  0  0  0  0
 36 38  1  0  0  0  0
 38 39  1  0  0  0  0
 38 67  1  0  0  0  0
 38 68  1  0  0  0  0
 39 69  1  0  0  0  0
 39 70  1  0  0  0  0
M  END
$$$$
CHEMBL25935
  -OEChem-07121202283D

 69 72  0     0  0  0  0  0  0999 V2000
   -0.0291    1.4998   -0.0385 C   0  0  0  0  0  0  0  0  0  0  0  0
    0.0053    0.0713   -0.0184 O   0  0  0  0  0  0  0  0  0  0  0  0
   -1.1900   -0.5743    0.0066 C   0  0  0  0  0  0  0  0  0  0  0  0
   -2.3480    0.1486    0.0059 C   0  0  0  0  0  0  0  0  0  0  0  0
   -3.5888   -0.5116    0.0317 C   0  0  0  0  0  0  0  0  0  0  0  0
   -4.7844    0.2293    0.0309 C   0  0  0  0  0  0  0  0  0  0  0  0
   -6.0043   -0.4170    0.0568 C   0  0  0  0  0  0  0  0  0  0  0  0
   -6.0550   -1.8785    0.0846 C   0  0  0  0  0  0  0  0  0  0  0  0
   -4.8655   -2.6094    0.0848 C   0  0  0  0  0  0  0  0  0  0  0  0
   -3.6242   -1.9280    0.0580 C   0  0  0  0  0  0  0  0  0  0  0  0
   -2.4211   -2.6492    0.0578 C   0  0  0  0  0  0  0  0  0  0  0  0
   -1.2209   -1.9762    0.0272 C   0  0  0  0  0  0  0  0  0  0  0  0
   -0.0562   -2.6759    0.0223 O   0  0  0  0  0  0  0  0  0  0  0  0
   -0.1555   -4.1012    0.0441 C   0  0  0  0  0  0  0  0  0  0  0  0
   -4.9015   -4.0865    0.1132 C   0  0  0  0  0  0  0  0  0  0  0  0
   -4.4004   -4.7772    1.2186 C   0  0  0  0  0  0  0  0  0  0  0  0
   -4.4352   -6.1596    1.2428 C   0  0  0  0  0  0  0  0  0  0  0  0
   -4.9685   -6.8624    0.1664 C   0  0  0  0  0  0  0  0  0  0  0  0
   -5.4681   -6.1764   -0.9367 C   0  0  0  0  0  0  0  0  0  0  0  0
   -5.4417   -4.7938   -0.9628 C   0  0  0  0  0  0  0  0  0  0  0  0
   -5.9882   -6.8659   -1.9872 O   0  0  0  0  0  0  0  0  0  0  0  0
   -6.4831   -6.0981   -3.0861 C   0  0  0  0  0  0  0  0  0  0  0  0
   -5.0011   -8.2216    0.1923 O   0  0  0  0  0  0  0  0  0  0  0  0
   -6.1668   -8.8320    0.7497 C   0  0  0  0  0  0  0  0  0  0  0  0
   -3.9474   -6.8327    2.3191 O   0  0  0  0  0  0  0  0  0  0  0  0
   -3.4144   -6.0482    3.3880 C   0  0  0  0  0  0  0  0  0  0  0  0
   -7.3512   -2.5740    0.1128 C   0  0  0  0  0  0  0  0  0  0  0  0
   -7.8990   -2.8808   -0.9279 O   0  0  0  0  0  0  0  0  0  0  0  0
   -7.9314   -2.8708    1.2930 O   0  0  0  0  0  0  0  0  0  0  0  0
   -9.1896   -3.5468    1.2455 C   0  0  0  0  0  0  0  0  0  0  0  0
   -7.2562    0.3663    0.0568 C   0  0  0  0  0  0  0  0  0  0  0  0
   -8.0938    0.1736    0.9167 O   0  0  0  0  0  0  0  0  0  0  0  0
   -7.4701    1.2948   -0.8963 N   0  0  0  0  0  0  0  0  0  0  0  0
   -6.5358    1.4541   -2.0220 C   0  0  0  0  0  0  0  0  0  0  0  0
   -7.3426    1.4415   -3.3254 C   0  0  0  0  0  0  0  0  0  0  0  0
   -8.3976    2.4020   -3.2352 O   0  0  0  0  0  0  0  0  0  0  0  0
   -9.3492    2.1311   -2.2032 C   0  0  0  0  0  0  0  0  0  0  0  0
   -8.6482    2.1752   -0.8454 C   0  0  0  0  0  0  0  0  0  0  0  0
    0.9894    1.8876   -0.0576 H   0  0  0  0  0  0  0  0  0  0  0  0
   -0.5633    1.8379   -0.9265 H   0  0  0  0  0  0  0  0  0  0  0  0
   -0.5398    1.8634    0.8531 H   0  0  0  0  0  0  0  0  0  0  0  0
   -2.3109    1.2278   -0.0142 H   0  0  0  0  0  0  0  0  0  0  0  0
   -4.7481    1.3085    0.0104 H   0  0  0  0  0  0  0  0  0  0  0  0
   -2.4365   -3.7289    0.0781 H   0  0  0  0  0  0  0  0  0  0  0  0
    0.8443   -4.5353    0.0374 H   0  0  0  0  0  0  0  0  0  0  0  0
   -0.6819   -4.4150    0.9455 H   0  0  0  0  0  0  0  0  0  0  0  0
   -0.7048   -4.4406   -0.8341 H   0  0  0  0  0  0  0  0  0  0  0  0
   -3.9858   -4.2323    2.0538 H   0  0  0  0  0  0  0  0  0  0  0  0
   -5.8339   -4.2618   -1.8170 H   0  0  0  0  0  0  0  0  0  0  0  0
   -7.2830   -5.4432   -2.7408 H   0  0  0  0  0  0  0  0  0  0  0  0
   -5.6750   -5.4964   -3.5021 H   0  0  0  0  0  0  0  0  0  0  0  0
   -6.8686   -6.7691   -3.8538 H   0  0  0  0  0  0  0  0  0  0  0  0
   -6.2816   -8.5165    1.7867 H   0  0  0  0  0  0  0  0  0  0  0  0
   -7.0441   -8.5289    0.1784 H   0  0  0  0  0  0  0  0  0  0  0  0
   -6.0637   -9.9164    0.7092 H   0  0  0  0  0  0  0  0  0  0  0  0
   -2.5842   -5.4464    3.0181 H   0  0  0  0  0  0  0  0  0  0  0  0
   -4.1918   -5.3927    3.7803 H   0  0  0  0  0  0  0  0  0  0  0  0
   -3.0604   -6.7071    4.1809 H   0  0  0  0  0  0  0  0  0  0  0  0
   -9.0709   -4.4996    0.7296 H   0  0  0  0  0  0  0  0  0  0  0  0
   -9.5448   -3.7249    2.2605 H   0  0  0  0  0  0  0  0  0  0  0  0
   -9.9127   -2.9314    0.7103 H   0  0  0  0  0  0  0  0  0  0  0  0
   -6.0055    2.4017   -1.9276 H   0  0  0  0  0  0  0  0  0  0  0  0
   -5.8208    0.6314   -2.0248 H   0  0  0  0  0  0  0  0  0  0  0  0
   -6.6895    1.6954   -4.1603 H   0  0  0  0  0  0  0  0  0  0  0  0
   -7.7659    0.4494   -3.4820 H   0  0  0  0  0  0  0  0  0  0  0  0
  -10.1396    2.8811   -2.2308 H   0  0  0  0  0  0  0  0  0  0  0  0
   -9.7798    1.1414   -2.3558 H   0  0  0  0  0  0  0  0  0  0  0  0
   -9.3313    1.8297   -0.0694 H   0  0  0  0  0  0  0  0  0  0  0  0
   -8.3341    3.1966   -0.6305 H   0  0  0  0  0  0  0  0  0  0  0  0
  1  2  1  0  0  0  0
  1 39  1  0  0  0  0
  1 40  1  0  0  0  0
  1 41  1  0  0  0  0
  2  3  1  0  0  0  0
  3 12  2  0  0  0  0
  3  4  1  0  0  0  0
  4  5  2  0  0  0  0
  4 42  1  0  0  0  0
  5 10  1  0  0  0  0
  5  6  1  0  0  0  0
  6  7  2  0  0  0  0
  6 43  1  0  0  0  0
  7  8  1  0  0  0  0
  7 31  1  0  0  0  0
  8  9  2  0  0  0  0
  8 27  1  0  0  0  0
  9 10  1  0  0  0  0
  9 15  1  0  0  0  0
 10 11  2  0  0  0  0
 11 12  1  0  0  0  0
 11 44  1  0  0  0  0
 12 13  1  0  0  0  0
 13 14  1  0  0  0  0
 14 45  1  0  0  0  0
 14 46  1  0  0  0  0
 14 47  1  0  0  0  0
 15 20  2  0  0  0  0
 15 16  1  0  0  0  0
 16 17  2  0  0  0  0
 16 48  1  0  0  0  0
 17 18  1  0  0  0  0
 17 25  1  0  0  0  0
 18 19  2  0  0  0  0
 18 23  1  0  0  0  0
 19 20  1  0  0  0  0
 19 21  1  0  0  0  0
 20 49  1  0  0  0  0
 21 22  1  0  0  0  0
 22 50  1  0  0  0  0
 22 51  1  0  0  0  0
 22 52  1  0  0  0  0
 23 24  1  0  0  0  0
 24 53  1  0  0  0  0
 24 54  1  0  0  0  0
 24 55  1  0  0  0  0
 25 26  1  0  0  0  0
 26 56  1  0  0  0  0
 26 57  1  0  0  0  0
 26 58  1  0  0  0  0
 27 28  2  0  0  0  0
 27 29  1  0  0  0  0
 29 30  1  0  0  0  0
 30 59  1  0  0  0  0
 30 60  1  0  0  0  0
 30 61  1  0  0  0  0
 31 32  2  0  0  0  0
 31 33  1  0  0  0  0
 33 38  1  0  0  0  0
 33 34  1  0  0  0  0
 34 35  1  0  0  0  0
 34 62  1  0  0  0  0
 34 63  1  0  0  0  0
 35 36  1  0  0  0  0
 35 64  1  0  0  0  0
 35 65  1  0  0  0  0
 36 37  1  0  0  0  0
 37 38  1  0  0  0  0
 37 66  1  0  0  0  0
 37 67  1  0  0  0  0
 38 68  1  0  0  0  0
 38 69  1  0  0  0  0
M  END
$$$$
CHEMBL444354
  -OEChem-07121202283D

 42 44  0     0  0  0  0  0  0999 V2000
   -0.0187    1.5258    0.0104 C   0  0  0  0  0  0  0  0  0  0  0  0
    0.0021   -0.0041    0.0020 C   0  0  0  0  0  0  0  0  0  0  0  0
   -1.4333   -0.5336    0.0129 C   0  0  0  0  0  0  0  0  0  0  0  0
   -1.4129   -2.0405    0.0046 C   0  0  0  0  0  0  0  0  0  0  0  0
   -1.4069   -2.8450   -1.1102 C   0  0  0  0  0  0  0  0  0  0  0  0
   -1.4170   -2.6156   -2.4335 N   0  0  0  0  0  0  0  0  0  0  0  0
   -1.4071   -3.6307   -3.2778 C   0  0  0  0  0  0  0  0  0  0  0  0
   -1.3871   -4.9007   -2.8407 N   0  0  0  0  0  0  0  0  0  0  0  0
   -1.3767   -5.1754   -1.5551 C   0  0  0  0  0  0  0  0  0  0  0  0
   -1.3863   -4.1497   -0.6477 N   0  0  0  0  0  0  0  0  0  0  0  0
   -1.3806   -4.0881    0.7089 C   0  0  0  0  0  0  0  0  0  0  0  0
   -1.3914   -2.8348    1.0803 N   0  0  0  0  0  0  0  0  0  0  0  0
   -1.3594   -5.2748    1.6376 C   0  0  0  0  0  0  0  0  0  0  0  0
   -1.3570   -6.4568   -1.1333 O   0  5  0  0  0  0  0  0  0  0  0  0
   -1.4189   -3.3643   -4.7332 C   0  0  0  0  0  0  0  0  0  0  0  0
   -1.4145   -4.4243   -5.6401 C   0  0  0  0  0  0  0  0  0  0  0  0
   -1.4255   -4.1700   -6.9955 C   0  0  0  0  0  0  0  0  0  0  0  0
   -1.4408   -2.8660   -7.4608 C   0  0  0  0  0  0  0  0  0  0  0  0
   -1.4448   -1.8080   -6.5725 C   0  0  0  0  0  0  0  0  0  0  0  0
   -1.4402   -2.0473   -5.2071 C   0  0  0  0  0  0  0  0  0  0  0  0
   -1.4507   -1.0085   -4.3330 O   0  0  0  0  0  0  0  0  0  0  0  0
   -1.4724    0.3075   -4.8896 C   0  0  0  0  0  0  0  0  0  0  0  0
   -1.4816    1.3390   -3.7597 C   0  0  0  0  0  0  0  0  0  0  0  0
    1.0039    1.9031    0.0027 H   0  0  0  0  0  0  0  0  0  0  0  0
   -0.5459    1.8868   -0.8726 H   0  0  0  0  0  0  0  0  0  0  0  0
   -0.5289    1.8773    0.9072 H   0  0  0  0  0  0  0  0  0  0  0  0
    0.5123   -0.3556   -0.8948 H   0  0  0  0  0  0  0  0  0  0  0  0
    0.5293   -0.3651    0.8851 H   0  0  0  0  0  0  0  0  0  0  0  0
   -1.9435   -0.1821    0.9097 H   0  0  0  0  0  0  0  0  0  0  0  0
   -1.9605   -0.1726   -0.8702 H   0  0  0  0  0  0  0  0  0  0  0  0
   -0.3267   -5.5464    1.8565 H   0  0  0  0  0  0  0  0  0  0  0  0
   -1.8723   -5.0196    2.5649 H   0  0  0  0  0  0  0  0  0  0  0  0
   -1.8637   -6.1166    1.1632 H   0  0  0  0  0  0  0  0  0  0  0  0
   -1.4023   -5.4429   -5.2812 H   0  0  0  0  0  0  0  0  0  0  0  0
   -1.4217   -4.9913   -7.6968 H   0  0  0  0  0  0  0  0  0  0  0  0
   -1.4493   -2.6750   -8.5237 H   0  0  0  0  0  0  0  0  0  0  0  0
   -1.4564   -0.7934   -6.9422 H   0  0  0  0  0  0  0  0  0  0  0  0
   -0.5876    0.4547   -5.5089 H   0  0  0  0  0  0  0  0  0  0  0  0
   -2.3674    0.4291   -5.4999 H   0  0  0  0  0  0  0  0  0  0  0  0
   -1.4981    2.3428   -4.1842 H   0  0  0  0  0  0  0  0  0  0  0  0
   -2.3664    1.1918   -3.1404 H   0  0  0  0  0  0  0  0  0  0  0  0
   -0.5866    1.2173   -3.1494 H   0  0  0  0  0  0  0  0  0  0  0  0
  1  2  1  0  0  0  0
  1 24  1  0  0  0  0
  1 25  1  0  0  0  0
  1 26  1  0  0  0  0
  2  3  1  0  0  0  0
  2 27  1  0  0  0  0
  2 28  1  0  0  0  0
  3  4  1  0  0  0  0
  3 29  1  0  0  0  0
  3 30  1  0  0  0  0
  4 12  1  0  0  0  0
  4  5  2  0  0  0  0
  5 10  1  0  0  0  0
  5  6  1  0  0  0  0
  6  7  2  0  0  0  0
  7  8  1  0  0  0  0
  7 15  1  0  0  0  0
  8  9  2  0  0  0  0
  9 10  1  0  0  0  0
  9 14  1  0  0  0  0
 10 11  1  0  0  0  0
 11 12  2  0  0  0  0
 11 13  1  0  0  0  0
 13 31  1  0  0  0  0
 13 32  1  0  0  0  0
 13 33  1  0  0  0  0
 15 20  2  0  0  0  0
 15 16  1  0  0  0  0
 16 17  2  0  0  0  0
 16 34  1  0  0  0  0
 17 18  1  0  0  0  0
 17 35  1  0  0  0  0
 18 19  2  0  0  0  0
 18 36  1  0  0  0  0
 19 20  1  0  0  0  0
 19 37  1  0  0  0  0
 20 21  1  0  0  0  0
 21 22  1  0  0  0  0
 22 23  1  0  0  0  0
 22 38  1  0  0  0  0
 22 39  1  0  0  0  0
 23 40  1  0  0  0  0
 23 41  1  0  0  0  0
 23 42  1  0  0  0  0
M  CHG  1  14  -1
M  END
$$$$
CHEMBL444354
  -OEChem-07121202283D

 43 45  0     0  0  0  0  0  0999 V2000
   -0.0187    1.5258    0.0104 C   0  0  0  0  0  0  0  0  0  0  0  0
    0.0021   -0.0041    0.0020 C   0  0  0  0  0  0  0  0  0  0  0  0
    0.7421   -0.5109    1.2415 C   0  0  0  0  0  0  0  0  0  0  0  0
    0.7625   -2.0177    1.2333 C   0  0  0  0  0  0  0  0  0  0  0  0
   -0.1702   -2.8263    1.7794 C   0  0  0  0  0  0  0  0  0  0  0  0
   -1.3552   -2.6070    2.4697 N   0  0  0  0  0  0  0  0  0  0  0  0
   -2.0790   -3.6866    2.8942 C   0  0  0  0  0  0  0  0  0  0  0  0
   -1.6545   -4.9142    2.6501 N   0  0  0  0  0  0  0  0  0  0  0  0
   -0.5174   -5.1428    1.9877 C   0  0  0  0  0  0  0  0  0  0  0  0
    0.2369   -4.1216    1.5450 N   0  0  0  0  0  0  0  0  0  0  0  0
    1.4109   -4.0480    0.8599 C   0  0  0  0  0  0  0  0  0  0  0  0
    1.7087   -2.7906    0.6763 N   0  0  0  0  0  0  0  0  0  0  0  0
    2.2278   -5.2228    0.3870 C   0  0  0  0  0  0  0  0  0  0  0  0
   -0.1600   -6.2886    1.7825 O   0  0  0  0  0  0  0  0  0  0  0  0
   -3.3397   -3.4802    3.6287 C   0  0  0  0  0  0  0  0  0  0  0  0
   -3.7991   -2.1854    3.8869 C   0  0  0  0  0  0  0  0  0  0  0  0
   -4.9786   -1.9995    4.5742 C   0  0  0  0  0  0  0  0  0  0  0  0
   -5.7126   -3.0905    5.0114 C   0  0  0  0  0  0  0  0  0  0  0  0
   -5.2706   -4.3749    4.7633 C   0  0  0  0  0  0  0  0  0  0  0  0
   -4.0887   -4.5814    4.0680 C   0  0  0  0  0  0  0  0  0  0  0  0
   -3.6564   -5.8428    3.8183 O   0  0  0  0  0  0  0  0  0  0  0  0
   -4.4718   -6.9145    4.2962 C   0  0  0  0  0  0  0  0  0  0  0  0
   -3.8275   -8.2511    3.9231 C   0  0  0  0  0  0  0  0  0  0  0  0
    1.0039    1.9031    0.0027 H   0  0  0  0  0  0  0  0  0  0  0  0
   -0.5459    1.8868   -0.8726 H   0  0  0  0  0  0  0  0  0  0  0  0
   -0.5289    1.8773    0.9072 H   0  0  0  0  0  0  0  0  0  0  0  0
   -1.0205   -0.3814    0.0098 H   0  0  0  0  0  0  0  0  0  0  0  0
    0.5123   -0.3556   -0.8948 H   0  0  0  0  0  0  0  0  0  0  0  0
    1.7647   -0.1336    1.2338 H   0  0  0  0  0  0  0  0  0  0  0  0
    0.2319   -0.1594    2.1383 H   0  0  0  0  0  0  0  0  0  0  0  0
    1.9069   -5.5089   -0.6146 H   0  0  0  0  0  0  0  0  0  0  0  0
    3.2822   -4.9473    0.3659 H   0  0  0  0  0  0  0  0  0  0  0  0
    2.0852   -6.0621    1.0678 H   0  0  0  0  0  0  0  0  0  0  0  0
   -3.2302   -1.3321    3.5484 H   0  0  0  0  0  0  0  0  0  0  0  0
   -5.3326   -0.9988    4.7735 H   0  0  0  0  0  0  0  0  0  0  0  0
   -6.6359   -2.9352    5.5497 H   0  0  0  0  0  0  0  0  0  0  0  0
   -5.8483   -5.2199    5.1077 H   0  0  0  0  0  0  0  0  0  0  0  0
   -4.5638   -6.8456    5.3802 H   0  0  0  0  0  0  0  0  0  0  0  0
   -5.4608   -6.8488    3.8427 H   0  0  0  0  0  0  0  0  0  0  0  0
   -3.7355   -8.3201    2.8392 H   0  0  0  0  0  0  0  0  0  0  0  0
   -2.8385   -8.3169    4.3766 H   0  0  0  0  0  0  0  0  0  0  0  0
   -4.4495   -9.0687    4.2876 H   0  0  0  0  0  0  0  0  0  0  0  0
   -1.6635   -1.7047    2.6477 H   0  0  0  0  0  0  0  0  0  0  0  0
  1  2  1  0  0  0  0
  1 24  1  0  0  0  0
  1 25  1  0  0  0  0
  1 26  1  0  0  0  0
  2  3  1  0  0  0  0
  2 27  1  0  0  0  0
  2 28  1  0  0  0  0
  3  4  1  0  0  0  0
  3 29  1  0  0  0  0
  3 30  1  0  0  0  0
  4 12  1  0  0  0  0
  4  5  2  0  0  0  0
  5 10  1  0  0  0  0
  5  6  1  0  0  0  0
  6  7  1  0  0  0  0
  6 43  1  0  0  0  0
  7  8  2  0  0  0  0
  7 15  1  0  0  0  0
  8  9  1  0  0  0  0
  9 10  1  0  0  0  0
  9 14  2  0  0  0  0
 10 11  1  0  0  0  0
 11 12  2  0  0  0  0
 11 13  1  0  0  0  0
 13 31  1  0  0  0  0
 13 32  1  0  0  0  0
 13 33  1  0  0  0  0
 15 20  2  0  0  0  0
 15 16  1  0  0  0  0
 16 17  2  0  0  0  0
 16 34  1  0  0  0  0
 17 18  1  0  0  0  0
 17 35  1  0  0  0  0
 18 19  2  0  0  0  0
 18 36  1  0  0  0  0
 19 20  1  0  0  0  0
 19 37  1  0  0  0  0
 20 21  1  0  0  0  0
 21 22  1  0  0  0  0
 22 23  1  0  0  0  0
 22 38  1  0  0  0  0
 22 39  1  0  0  0  0
 23 40  1  0  0  0  0
 23 41  1  0  0  0  0
 23 42  1  0  0  0  0
M  END
$$$$
CHEMBL141307
  -OEChem-07121202283D

 56 61  0     1  0  0  0  0  0999 V2000
   -0.9761   -0.7663    0.7118 C   0  0  0  0  0  0  0  0  0  0  0  0
    0.0028   -0.0042    0.0025 O   0  0  0  0  0  0  0  0  0  0  0  0
    0.6065   -0.6073   -1.0552 C   0  0  0  0  0  0  0  0  0  0  0  0
    0.2598   -1.9037   -1.4067 C   0  0  0  0  0  0  0  0  0  0  0  0
    0.8746   -2.5144   -2.4826 C   0  0  0  0  0  0  0  0  0  0  0  0
    1.8352   -1.8346   -3.2086 C   0  0  0  0  0  0  0  0  0  0  0  0
    2.1828   -0.5426   -2.8600 C   0  0  0  0  0  0  0  0  0  0  0  0
    1.5665    0.0746   -1.7888 C   0  0  0  0  0  0  0  0  0  0  0  0
    2.5046   -2.5033   -4.3815 C   0  0  2  0  0  0  0  0  0  0  0  0
    3.1131   -1.7790   -4.9230 H   0  0  0  0  0  0  0  0  0  0  0  0
    1.4600   -3.0890   -5.3042 C   0  0  0  0  0  0  0  0  0  0  0  0
    1.5097   -4.3517   -5.7809 C   0  0  0  0  0  0  0  0  0  0  0  0
    0.3451   -4.5322   -6.6240 C   0  0  0  0  0  0  0  0  0  0  0  0
   -0.1230   -5.6150   -7.3745 C   0  0  0  0  0  0  0  0  0  0  0  0
   -1.2920   -5.4285   -8.0701 C   0  0  0  0  0  0  0  0  0  0  0  0
   -1.9841   -4.2288   -8.0387 C   0  0  0  0  0  0  0  0  0  0  0  0
   -1.5430   -3.1406   -7.3058 C   0  0  0  0  0  0  0  0  0  0  0  0
   -0.3590   -3.3012   -6.5889 C   0  0  0  0  0  0  0  0  0  0  0  0
    0.3445   -2.4538   -5.7821 N   0  0  0  0  0  0  0  0  0  0  0  0
    0.0922   -1.5398   -5.5778 H   0  0  0  0  0  0  0  0  0  0  0  0
    2.5937   -5.3485   -5.4594 C   0  0  0  0  0  0  0  0  0  0  0  0
    3.8074   -4.5967   -4.8950 C   0  0  1  0  0  0  0  0  0  0  0  0
    4.3045   -4.0694   -5.7093 H   0  0  0  0  0  0  0  0  0  0  0  0
    3.3527   -3.6179   -3.9077 N   0  0  0  0  0  0  0  0  0  0  0  0
    3.6630   -3.6897   -2.6117 C   0  0  0  0  0  0  0  0  0  0  0  0
    3.1759   -2.8656   -1.8672 O   0  0  0  0  0  0  0  0  0  0  0  0
    4.5696   -4.7172   -2.0160 C   0  0  0  0  0  0  0  0  0  0  0  0
    5.1081   -5.6185   -3.0209 N   0  0  0  0  0  0  0  0  0  0  0  0
    4.7672   -5.5727   -4.2946 C   0  0  0  0  0  0  0  0  0  0  0  0
    5.2875   -6.3836   -5.0312 O   0  0  0  0  0  0  0  0  0  0  0  0
    6.0691   -6.6372   -2.5905 C   0  0  0  0  0  0  0  0  0  0  0  0
    5.3194   -7.9115   -2.1968 C   0  0  0  0  0  0  0  0  0  0  0  0
    5.4123   -8.3637   -0.7381 C   0  0  0  0  0  0  0  0  0  0  0  0
    6.1563   -9.1381   -1.8279 C   0  0  0  0  0  0  0  0  0  0  0  0
   -1.7827   -1.0434    0.0331 H   0  0  0  0  0  0  0  0  0  0  0  0
   -0.5135   -1.6678    1.1136 H   0  0  0  0  0  0  0  0  0  0  0  0
   -1.3787   -0.1691    1.5299 H   0  0  0  0  0  0  0  0  0  0  0  0
   -0.4900   -2.4353   -0.8395 H   0  0  0  0  0  0  0  0  0  0  0  0
    0.6050   -3.5236   -2.7566 H   0  0  0  0  0  0  0  0  0  0  0  0
    2.9337   -0.0139   -3.4284 H   0  0  0  0  0  0  0  0  0  0  0  0
    1.8352    1.0854   -1.5196 H   0  0  0  0  0  0  0  0  0  0  0  0
    0.4100   -6.5538   -7.4058 H   0  0  0  0  0  0  0  0  0  0  0  0
   -1.6844   -6.2429   -8.6609 H   0  0  0  0  0  0  0  0  0  0  0  0
   -2.8988   -4.1395   -8.6058 H   0  0  0  0  0  0  0  0  0  0  0  0
   -2.0912   -2.2102   -7.2903 H   0  0  0  0  0  0  0  0  0  0  0  0
    2.2278   -6.0597   -4.7188 H   0  0  0  0  0  0  0  0  0  0  0  0
    2.8824   -5.8793   -6.3666 H   0  0  0  0  0  0  0  0  0  0  0  0
    5.3950   -4.2127   -1.5138 H   0  0  0  0  0  0  0  0  0  0  0  0
    4.0121   -5.2982   -1.2813 H   0  0  0  0  0  0  0  0  0  0  0  0
    6.7557   -6.8574   -3.4079 H   0  0  0  0  0  0  0  0  0  0  0  0
    6.6315   -6.2670   -1.7333 H   0  0  0  0  0  0  0  0  0  0  0  0
    4.3777   -8.0830   -2.7182 H   0  0  0  0  0  0  0  0  0  0  0  0
    6.0076   -7.7533   -0.0589 H   0  0  0  0  0  0  0  0  0  0  0  0
    4.5316   -8.8327   -0.2995 H   0  0  0  0  0  0  0  0  0  0  0  0
    5.7649  -10.1166   -2.1063 H   0  0  0  0  0  0  0  0  0  0  0  0
    7.2409   -9.0372   -1.8658 H   0  0  0  0  0  0  0  0  0  0  0  0
  1  2  1  0  0  0  0
  1 35  1  0  0  0  0
  1 36  1  0  0  0  0
  1 37  1  0  0  0  0
  2  3  1  0  0  0  0
  3  8  2  0  0  0  0
  3  4  1  0  0  0  0
  4  5  2  0  0  0  0
  4 38  1  0  0  0  0
  5  6  1  0  0  0  0
  5 39  1  0  0  0  0
  6  7  2  0  0  0  0
  6  9  1  0  0  0  0
  7  8  1  0  0  0  0
  7 40  1  0  0  0  0
  8 41  1  0  0  0  0
  9 10  1  0  0  0  0
  9 24  1  0  0  0  0
  9 11  1  0  0  0  0
 11 19  1  0  0  0  0
 11 12  2  0  0  0  0
 12 13  1  0  0  0  0
 12 21  1  0  0  0  0
 13 18  2  0  0  0  0
 13 14  1  0  0  0  0
 14 15  2  0  0  0  0
 14 42  1  0  0  0  0
 15 16  1  0  0  0  0
 15 43  1  0  0  0  0
 16 17  2  0  0  0  0
 16 44  1  0  0  0  0
 17 18  1  0  0  0  0
 17 45  1  0  0  0  0
 18 19  1  0  0  0  0
 19 20  1  0  0  0  0
 21 22  1  0  0  0  0
 21 46  1  0  0  0  0
 21 47  1  0  0  0  0
 22 23  1  0  0  0  0
 22 29  1  0  0  0  0
 22 24  1  0  0  0  0
 24 25  1  0  0  0  0
 25 26  2  0  0  0  0
 25 27  1  0  0  0  0
 27 28  1  0  0  0  0
 27 48  1  0  0  0  0
 27 49  1  0  0  0  0
 28 29  1  0  0  0  0
 28 31  1  0  0  0  0
 29 30  2  0  0  0  0
 31 32  1  0  0  0  0
 31 50  1  0  0  0  0
 31 51  1  0  0  0  0
 32 34  1  0  0  0  0
 32 33  1  0  0  0  0
 32 52  1  0  0  0  0
 33 34  1  0  0  0  0
 33 53  1  0  0  0  0
 33 54  1  0  0  0  0
 34 55  1  0  0  0  0
 34 56  1  0  0  0  0
M  END
$$$$
CHEMBL183899
  -OEChem-07121202283D

 65 68  0     0  0  0  0  0  0999 V2000
   -0.0187    1.5258    0.0104 C   0  0  0  0  0  0  0  0  0  0  0  0
    0.0021   -0.0041    0.0020 C   0  0  0  0  0  0  0  0  0  0  0  0
   -1.4333   -0.5336    0.0129 C   0  0  0  0  0  0  0  0  0  0  0  0
   -1.4129   -2.0405    0.0046 C   0  0  0  0  0  0  0  0  0  0  0  0
   -1.4068   -2.8664   -1.1382 C   0  0  0  0  0  0  0  0  0  0  0  0
   -1.3862   -4.1742   -0.6388 C   0  0  0  0  0  0  0  0  0  0  0  0
   -1.3814   -4.0591    0.7248 N   0  0  0  0  0  0  0  0  0  0  0  0
   -1.3919   -2.8174    1.0552 N   0  0  0  0  0  0  0  0  0  0  0  0
   -1.3621   -5.1819    1.6657 C   0  0  0  0  0  0  0  0  0  0  0  0
   -1.3750   -5.2781   -1.5166 C   0  0  0  0  0  0  0  0  0  0  0  0
   -1.3576   -6.4136   -1.0857 O   0  0  0  0  0  0  0  0  0  0  0  0
   -1.3857   -5.0169   -3.0069 C   0  0  0  0  0  0  0  0  0  0  0  0
   -1.4078   -3.5820   -3.4802 C   0  0  0  0  0  0  0  0  0  0  0  0
   -1.4178   -2.5878   -2.5730 C   0  0  0  0  0  0  0  0  0  0  0  0
   -1.4184   -3.2746   -4.9192 C   0  0  0  0  0  0  0  0  0  0  0  0
   -0.2539   -3.4227   -5.6785 C   0  0  0  0  0  0  0  0  0  0  0  0
   -0.2711   -3.1329   -7.0260 C   0  0  0  0  0  0  0  0  0  0  0  0
   -1.4373   -2.6954   -7.6317 C   0  0  0  0  0  0  0  0  0  0  0  0
   -2.5954   -2.5448   -6.8927 C   0  0  0  0  0  0  0  0  0  0  0  0
   -2.5985   -2.8368   -5.5386 C   0  0  0  0  0  0  0  0  0  0  0  0
   -3.7374   -2.6950   -4.8129 O   0  0  0  0  0  0  0  0  0  0  0  0
   -4.8999   -2.2449   -5.5115 C   0  0  0  0  0  0  0  0  0  0  0  0
   -6.0748   -2.1466   -4.5364 C   0  0  0  0  0  0  0  0  0  0  0  0
    1.1972   -3.3192   -7.9820 S   0  0  0  0  0  0  0  0  0  0  0  0
    1.0602   -2.4630   -9.1078 O   0  0  0  0  0  0  0  0  0  0  0  0
    2.2873   -3.2179   -7.0761 O   0  0  0  0  0  0  0  0  0  0  0  0
    1.2086   -4.8692   -8.5649 N   0  0  0  0  0  0  0  0  0  0  0  0
    1.8303   -5.9595   -7.7981 C   0  0  0  0  0  0  0  0  0  0  0  0
    0.8252   -7.1109   -7.6866 C   0  0  0  0  0  0  0  0  0  0  0  0
    0.3603   -7.4826   -9.0296 N   0  0  0  0  0  0  0  0  0  0  0  0
   -0.3592   -6.3737   -9.6702 C   0  0  0  0  0  0  0  0  0  0  0  0
    0.5919   -5.1932   -9.8602 C   0  0  0  0  0  0  0  0  0  0  0  0
   -0.4714   -8.6925   -8.9826 C   0  0  0  0  0  0  0  0  0  0  0  0
    1.0039    1.9031    0.0027 H   0  0  0  0  0  0  0  0  0  0  0  0
   -0.5459    1.8868   -0.8726 H   0  0  0  0  0  0  0  0  0  0  0  0
   -0.5289    1.8773    0.9072 H   0  0  0  0  0  0  0  0  0  0  0  0
    0.5123   -0.3556   -0.8948 H   0  0  0  0  0  0  0  0  0  0  0  0
    0.5293   -0.3651    0.8851 H   0  0  0  0  0  0  0  0  0  0  0  0
   -1.9435   -0.1821    0.9097 H   0  0  0  0  0  0  0  0  0  0  0  0
   -1.9605   -0.1726   -0.8702 H   0  0  0  0  0  0  0  0  0  0  0  0
   -0.3298   -5.4467    1.8943 H   0  0  0  0  0  0  0  0  0  0  0  0
   -1.8755   -4.8956    2.5836 H   0  0  0  0  0  0  0  0  0  0  0  0
   -1.8667   -6.0388    1.2193 H   0  0  0  0  0  0  0  0  0  0  0  0
   -0.5024   -5.4927   -3.4329 H   0  0  0  0  0  0  0  0  0  0  0  0
   -2.2594   -5.5171   -3.4246 H   0  0  0  0  0  0  0  0  0  0  0  0
   -1.4336   -1.5626   -2.9123 H   0  0  0  0  0  0  0  0  0  0  0  0
    0.6577   -3.7632   -5.2100 H   0  0  0  0  0  0  0  0  0  0  0  0
   -1.4416   -2.4703   -8.6880 H   0  0  0  0  0  0  0  0  0  0  0  0
   -3.5006   -2.2032   -7.3726 H   0  0  0  0  0  0  0  0  0  0  0  0
   -4.7056   -1.2644   -5.9463 H   0  0  0  0  0  0  0  0  0  0  0  0
   -5.1439   -2.9520   -6.3043 H   0  0  0  0  0  0  0  0  0  0  0  0
   -6.2690   -3.1271   -4.1016 H   0  0  0  0  0  0  0  0  0  0  0  0
   -5.8308   -1.4394   -3.7436 H   0  0  0  0  0  0  0  0  0  0  0  0
   -6.9615   -1.8033   -5.0693 H   0  0  0  0  0  0  0  0  0  0  0  0
    2.7267   -6.3046   -8.3132 H   0  0  0  0  0  0  0  0  0  0  0  0
    2.0914   -5.6036   -6.8014 H   0  0  0  0  0  0  0  0  0  0  0  0
    1.3061   -7.9693   -7.2176 H   0  0  0  0  0  0  0  0  0  0  0  0
   -0.0248   -6.7944   -7.0820 H   0  0  0  0  0  0  0  0  0  0  0  0
   -0.7374   -6.6975  -10.6399 H   0  0  0  0  0  0  0  0  0  0  0  0
   -1.1928   -6.0675   -9.0381 H   0  0  0  0  0  0  0  0  0  0  0  0
    0.0346   -4.3309  -10.2263 H   0  0  0  0  0  0  0  0  0  0  0  0
    1.3670   -5.4632  -10.5774 H   0  0  0  0  0  0  0  0  0  0  0  0
   -1.3401   -8.5119   -8.3496 H   0  0  0  0  0  0  0  0  0  0  0  0
   -0.8021   -8.9454   -9.9899 H   0  0  0  0  0  0  0  0  0  0  0  0
    0.1110   -9.5181   -8.5734 H   0  0  0  0  0  0  0  0  0  0  0  0
  1  2  1  0  0  0  0
  1 34  1  0  0  0  0
  1 35  1  0  0  0  0
  1 36  1  0  0  0  0
  2  3  1  0  0  0  0
  2 37  1  0  0  0  0
  2 38  1  0  0  0  0
  3  4  1  0  0  0  0
  3 39  1  0  0  0  0
  3 40  1  0  0  0  0
  4  8  2  0  0  0  0
  4  5  1  0  0  0  0
  5 14  1  0  0  0  0
  5  6  2  0  0  0  0
  6  7  1  0  0  0  0
  6 10  1  0  0  0  0
  7  8  1  0  0  0  0
  7  9  1  0  0  0  0
  9 41  1  0  0  0  0
  9 42  1  0  0  0  0
  9 43  1  0  0  0  0
 10 11  2  0  0  0  0
 10 12  1  0  0  0  0
 12 13  1  0  0  0  0
 12 44  1  0  0  0  0
 12 45  1  0  0  0  0
 13 14  2  0  0  0  0
 13 15  1  0  0  0  0
 14 46  1  0  0  0  0
 15 20  2  0  0  0  0
 15 16  1  0  0  0  0
 16 17  2  0  0  0  0
 16 47  1  0  0  0  0
 17 18  1  0  0  0  0
 17 24  1  0  0  0  0
 18 19  2  0  0  0  0
 18 48  1  0  0  0  0
 19 20  1  0  0  0  0
 19 49  1  0  0  0  0
 20 21  1  0  0  0  0
 21 22  1  0  0  0  0
 22 23  1  0  0  0  0
 22 50  1  0  0  0  0
 22 51  1  0  0  0  0
 23 52  1  0  0  0  0
 23 53  1  0  0  0  0
 23 54  1  0  0  0  0
 24 25  2  0  0  0  0
 24 26  2  0  0  0  0
 24 27  1  0  0  0  0
 27 32  1  0  0  0  0
 27 28  1  0  0  0  0
 28 29  1  0  0  0  0
 28 55  1  0  0  0  0
 28 56  1  0  0  0  0
 29 30  1  0  0  0  0
 29 57  1  0  0  0  0
 29 58  1  0  0  0  0
 30 31  1  0  0  0  0
 30 33  1  0  0  0  0
 31 32  1  0  0  0  0
 31 59  1  0  0  0  0
 31 60  1  0  0  0  0
 32 61  1  0  0  0  0
 32 62  1  0  0  0  0
 33 63  1  0  0  0  0
 33 64  1  0  0  0  0
 33 65  1  0  0  0  0
M  END
$$$$
CHEMBL183899
  -OEChem-07121202283D

 66 69  0     0  0  0  0  0  0999 V2000
   -0.0187    1.5258    0.0104 C   0  0  0  0  0  0  0  0  0  0  0  0
    0.0021   -0.0041    0.0020 C   0  0  0  0  0  0  0  0  0  0  0  0
    0.7421   -0.5109    1.2415 C   0  0  0  0  0  0  0  0  0  0  0  0
    0.7625   -2.0177    1.2333 C   0  0  0  0  0  0  0  0  0  0  0  0
   -0.2093   -2.8664    1.8022 C   0  0  0  0  0  0  0  0  0  0  0  0
    0.2457   -4.1640    1.5393 C   0  0  0  0  0  0  0  0  0  0  0  0
    1.4211   -4.0218    0.8530 N   0  0  0  0  0  0  0  0  0  0  0  0
    1.6812   -2.7737    0.6925 N   0  0  0  0  0  0  0  0  0  0  0  0
    2.2542   -5.1257    0.3698 C   0  0  0  0  0  0  0  0  0  0  0  0
   -0.4923   -5.2854    1.9723 C   0  0  0  0  0  0  0  0  0  0  0  0
   -0.0994   -6.4121    1.7458 O   0  0  0  0  0  0  0  0  0  0  0  0
   -1.7838   -5.0538    2.7257 C   0  0  0  0  0  0  0  0  0  0  0  0
   -2.2185   -3.6285    2.9765 C   0  0  0  0  0  0  0  0  0  0  0  0
   -1.4530   -2.6163    2.5281 C   0  0  0  0  0  0  0  0  0  0  0  0
   -3.4668   -3.3499    3.7040 C   0  0  0  0  0  0  0  0  0  0  0  0
   -4.7025   -3.5312    3.0756 C   0  0  0  0  0  0  0  0  0  0  0  0
   -5.8679   -3.2681    3.7633 C   0  0  0  0  0  0  0  0  0  0  0  0
   -5.8205   -2.8248    5.0745 C   0  0  0  0  0  0  0  0  0  0  0  0
   -4.6057   -2.6414    5.7075 C   0  0  0  0  0  0  0  0  0  0  0  0
   -3.4244   -2.9062    5.0342 C   0  0  0  0  0  0  0  0  0  0  0  0
   -2.2306   -2.7321    5.6572 O   0  0  0  0  0  0  0  0  0  0  0  0
   -2.2658   -2.2780    7.0117 C   0  0  0  0  0  0  0  0  0  0  0  0
   -0.8368   -2.1420    7.5413 C   0  0  0  0  0  0  0  0  0  0  0  0
   -7.4247   -3.4964    2.9703 S   0  0  0  0  0  0  0  0  0  0  0  0
   -8.3524   -2.6608    3.6487 O   0  0  0  0  0  0  0  0  0  0  0  0
   -7.1876   -3.3940    1.5729 O   0  0  0  0  0  0  0  0  0  0  0  0
   -7.8961   -5.0577    3.2572 N   0  0  0  0  0  0  0  0  0  0  0  0
   -7.5161   -6.1433    2.3400 C   0  0  0  0  0  0  0  0  0  0  0  0
   -6.9063   -7.2831    3.1626 C   0  0  0  0  0  0  0  0  0  0  0  0
   -7.8470   -7.6820    4.2171 N   0  3  0  0  0  0  0  0  0  0  0  0
   -8.0402   -6.5735    5.1605 C   0  0  0  0  0  0  0  0  0  0  0  0
   -8.7015   -5.3994    4.4398 C   0  0  0  0  0  0  0  0  0  0  0  0
   -7.3101   -8.8458    4.9351 C   0  0  0  0  0  0  0  0  0  0  0  0
    1.0039    1.9031    0.0027 H   0  0  0  0  0  0  0  0  0  0  0  0
   -0.5459    1.8868   -0.8726 H   0  0  0  0  0  0  0  0  0  0  0  0
   -0.5289    1.8773    0.9072 H   0  0  0  0  0  0  0  0  0  0  0  0
   -1.0205   -0.3814    0.0098 H   0  0  0  0  0  0  0  0  0  0  0  0
    0.5123   -0.3556   -0.8948 H   0  0  0  0  0  0  0  0  0  0  0  0
    1.7647   -0.1336    1.2338 H   0  0  0  0  0  0  0  0  0  0  0  0
    0.2319   -0.1594    2.1383 H   0  0  0  0  0  0  0  0  0  0  0  0
    1.9429   -5.4019   -0.6376 H   0  0  0  0  0  0  0  0  0  0  0  0
    3.2983   -4.8132    0.3545 H   0  0  0  0  0  0  0  0  0  0  0  0
    2.1414   -5.9834    1.0329 H   0  0  0  0  0  0  0  0  0  0  0  0
   -2.5821   -5.5517    2.1754 H   0  0  0  0  0  0  0  0  0  0  0  0
   -1.6963   -5.5486    3.6930 H   0  0  0  0  0  0  0  0  0  0  0  0
   -1.7647   -1.5980    2.7079 H   0  0  0  0  0  0  0  0  0  0  0  0
   -4.7439   -3.8764    2.0531 H   0  0  0  0  0  0  0  0  0  0  0  0
   -6.7386   -2.6208    5.6055 H   0  0  0  0  0  0  0  0  0  0  0  0
   -4.5775   -2.2954    6.7301 H   0  0  0  0  0  0  0  0  0  0  0  0
   -2.7640   -1.3096    7.0574 H   0  0  0  0  0  0  0  0  0  0  0  0
   -2.8125   -2.9970    7.6218 H   0  0  0  0  0  0  0  0  0  0  0  0
   -0.3387   -3.1104    7.4956 H   0  0  0  0  0  0  0  0  0  0  0  0
   -0.2901   -1.4230    6.9312 H   0  0  0  0  0  0  0  0  0  0  0  0
   -0.8637   -1.7956    8.5745 H   0  0  0  0  0  0  0  0  0  0  0  0
   -8.3997   -6.5038    1.8132 H   0  0  0  0  0  0  0  0  0  0  0  0
   -6.7824   -5.7763    1.6222 H   0  0  0  0  0  0  0  0  0  0  0  0
   -6.7071   -8.1346    2.5120 H   0  0  0  0  0  0  0  0  0  0  0  0
   -5.9740   -6.9459    3.6157 H   0  0  0  0  0  0  0  0  0  0  0  0
   -8.6766   -6.9023    5.9821 H   0  0  0  0  0  0  0  0  0  0  0  0
   -7.0737   -6.2578    5.5531 H   0  0  0  0  0  0  0  0  0  0  0  0
   -8.7511   -4.5410    5.1097 H   0  0  0  0  0  0  0  0  0  0  0  0
   -9.7068   -5.6836    4.1287 H   0  0  0  0  0  0  0  0  0  0  0  0
   -6.3508   -8.5858    5.3824 H   0  0  0  0  0  0  0  0  0  0  0  0
   -8.0076   -9.1430    5.7182 H   0  0  0  0  0  0  0  0  0  0  0  0
   -7.1737   -9.6720    4.2373 H   0  0  0  0  0  0  0  0  0  0  0  0
   -8.7331   -7.9262    3.8008 H   0  0  0  0  0  0  0  0  0  0  0  0
  1  2  1  0  0  0  0
  1 34  1  0  0  0  0
  1 35  1  0  0  0  0
  1 36  1  0  0  0  0
  2  3  1  0  0  0  0
  2 37  1  0  0  0  0
  2 38  1  0  0  0  0
  3  4  1  0  0  0  0
  3 39  1  0  0  0  0
  3 40  1  0  0  0  0
  4  8  2  0  0  0  0
  4  5  1  0  0  0  0
  5 14  1  0  0  0  0
  5  6  2  0  0  0  0
  6  7  1  0  0  0  0
  6 10  1  0  0  0  0
  7  8  1  0  0  0  0
  7  9  1  0  0  0  0
  9 41  1  0  0  0  0
  9 42  1  0  0  0  0
  9 43  1  0  0  0  0
 10 11  2  0  0  0  0
 10 12  1  0  0  0  0
 12 13  1  0  0  0  0
 12 44  1  0  0  0  0
 12 45  1  0  0  0  0
 13 14  2  0  0  0  0
 13 15  1  0  0  0  0
 14 46  1  0  0  0  0
 15 20  2  0  0  0  0
 15 16  1  0  0  0  0
 16 17  2  0  0  0  0
 16 47  1  0  0  0  0
 17 18  1  0  0  0  0
 17 24  1  0  0  0  0
 18 19  2  0  0  0  0
 18 48  1  0  0  0  0
 19 20  1  0  0  0  0
 19 49  1  0  0  0  0
 20 21  1  0  0  0  0
 21 22  1  0  0  0  0
 22 23  1  0  0  0  0
 22 50  1  0  0  0  0
 22 51  1  0  0  0  0
 23 52  1  0  0  0  0
 23 53  1  0  0  0  0
 23 54  1  0  0  0  0
 24 25  2  0  0  0  0
 24 26  2  0  0  0  0
 24 27  1  0  0  0  0
 27 32  1  0  0  0  0
 27 28  1  0  0  0  0
 28 29  1  0  0  0  0
 28 55  1  0  0  0  0
 28 56  1  0  0  0  0
 29 30  1  0  0  0  0
 29 57  1  0  0  0  0
 29 58  1  0  0  0  0
 30 31  1  0  0  0  0
 30 33  1  0  0  0  0
 30 66  1  0  0  0  0
 31 32  1  0  0  0  0
 31 59  1  0  0  0  0
 31 60  1  0  0  0  0
 32 61  1  0  0  0  0
 32 62  1  0  0  0  0
 33 63  1  0  0  0  0
 33 64  1  0  0  0  0
 33 65  1  0  0  0  0
M  CHG  1  30   1
M  END
$$$$
CHEMBL540294
  -OEChem-07121202283D

 72 76  0     0  0  0  0  0  0999 V2000
    0.4880    1.3225    0.5104 C   0  0  0  0  0  0  0  0  0  0  0  0
    0.3702   -0.1734    0.3710 C   0  0  0  0  0  0  0  0  0  0  0  0
    0.2878   -0.7378   -0.8881 C   0  0  0  0  0  0  0  0  0  0  0  0
    0.1797   -2.1148   -1.0053 C   0  0  0  0  0  0  0  0  0  0  0  0
    0.1585   -2.8762    0.1535 C   0  0  0  0  0  0  0  0  0  0  0  0
    0.2451   -2.2415    1.3779 C   0  0  0  0  0  0  0  0  0  0  0  0
    0.3523   -0.9291    1.4513 N   0  0  0  0  0  0  0  0  0  0  0  0
    0.0870   -2.7689   -2.3599 C   0  0  0  0  0  0  0  0  0  0  0  0
    1.4325   -2.9348   -2.9151 N   0  0  0  0  0  0  0  0  0  0  0  0
    1.9424   -1.9462   -3.7291 C   0  0  0  0  0  0  0  0  0  0  0  0
    3.2045   -2.0438   -4.2833 C   0  0  0  0  0  0  0  0  0  0  0  0
    4.0161   -3.2333   -3.9928 C   0  0  0  0  0  0  0  0  0  0  0  0
    5.2991   -3.4141   -4.5087 C   0  0  0  0  0  0  0  0  0  0  0  0
    5.9868   -4.5648   -4.1801 C   0  0  0  0  0  0  0  0  0  0  0  0
    5.4578   -5.4868   -3.3950 N   0  0  0  0  0  0  0  0  0  0  0  0
    4.2460   -5.3702   -2.8767 C   0  0  0  0  0  0  0  0  0  0  0  0
    3.4753   -4.2356   -3.1560 C   0  0  0  0  0  0  0  0  0  0  0  0
    2.1298   -4.0455   -2.6077 C   0  0  0  0  0  0  0  0  0  0  0  0
    1.6417   -4.8912   -1.8802 O   0  0  0  0  0  0  0  0  0  0  0  0
    3.7526   -6.3463   -2.0778 O   0  0  0  0  0  0  0  0  0  0  0  0
    4.5951   -7.4750   -1.8366 C   0  0  0  0  0  0  0  0  0  0  0  0
    3.8835   -8.4491   -0.9334 C   0  0  0  0  0  0  0  0  0  0  0  0
    4.0211   -8.3316    0.3720 N   0  0  0  0  0  0  0  0  0  0  0  0
    3.4115   -9.1686    1.1961 C   0  0  0  0  0  0  0  0  0  0  0  0
    2.6208  -10.1775    0.6690 C   0  0  0  0  0  0  0  0  0  0  0  0
    2.5004  -10.2690   -0.7087 C   0  0  0  0  0  0  0  0  0  0  0  0
    3.1358   -9.3926   -1.4699 N   0  0  0  0  0  0  0  0  0  0  0  0
    3.7285   -0.9704   -5.1534 C   0  0  0  0  0  0  0  0  0  0  0  0
    3.1145   -0.7008   -6.3784 C   0  0  0  0  0  0  0  0  0  0  0  0
    3.6065    0.3046   -7.1907 C   0  0  0  0  0  0  0  0  0  0  0  0
    4.7126    1.0474   -6.7882 C   0  0  0  0  0  0  0  0  0  0  0  0
    5.3263    0.7807   -5.5677 C   0  0  0  0  0  0  0  0  0  0  0  0
    4.8349   -0.2201   -4.7494 C   0  0  0  0  0  0  0  0  0  0  0  0
    6.4072    1.5079   -5.1775 O   0  0  0  0  0  0  0  0  0  0  0  0
    6.9873    1.1805   -3.9133 C   0  0  0  0  0  0  0  0  0  0  0  0
    5.1947    2.0352   -7.5889 O   0  0  0  0  0  0  0  0  0  0  0  0
    4.6544    3.3447   -7.4007 C   0  0  0  0  0  0  0  0  0  0  0  0
    3.0093    0.5674   -8.3839 O   0  0  0  0  0  0  0  0  0  0  0  0
    1.8790   -0.2338   -8.7341 C   0  0  0  0  0  0  0  0  0  0  0  0
    1.1237   -0.7599   -4.0150 C   0  0  0  0  0  0  0  0  0  0  0  0
    1.5503    0.1107   -4.7485 O   0  0  0  0  0  0  0  0  0  0  0  0
   -0.1010   -0.6369   -3.4635 O   0  0  0  0  0  0  0  0  0  0  0  0
   -0.8416    0.5422   -3.7848 C   0  0  0  0  0  0  0  0  0  0  0  0
    1.5405    1.6060    0.5069 H   0  0  0  0  0  0  0  0  0  0  0  0
   -0.0214    1.8063   -0.3231 H   0  0  0  0  0  0  0  0  0  0  0  0
    0.0300    1.6373    1.4481 H   0  0  0  0  0  0  0  0  0  0  0  0
    0.3070   -0.1138   -1.7694 H   0  0  0  0  0  0  0  0  0  0  0  0
    0.0749   -3.9516    0.0998 H   0  0  0  0  0  0  0  0  0  0  0  0
    0.2292   -2.8274    2.2850 H   0  0  0  0  0  0  0  0  0  0  0  0
   -0.3879   -3.7449   -2.2603 H   0  0  0  0  0  0  0  0  0  0  0  0
   -0.5062   -2.1424   -3.0260 H   0  0  0  0  0  0  0  0  0  0  0  0
    5.7449   -2.6698   -5.1519 H   0  0  0  0  0  0  0  0  0  0  0  0
    6.9809   -4.7154   -4.5743 H   0  0  0  0  0  0  0  0  0  0  0  0
    4.8299   -7.9620   -2.7831 H   0  0  0  0  0  0  0  0  0  0  0  0
    5.5176   -7.1444   -1.3594 H   0  0  0  0  0  0  0  0  0  0  0  0
    3.5288   -9.0670    2.2649 H   0  0  0  0  0  0  0  0  0  0  0  0
    2.1111  -10.8759    1.3163 H   0  0  0  0  0  0  0  0  0  0  0  0
    1.8931  -11.0426   -1.1548 H   0  0  0  0  0  0  0  0  0  0  0  0
    2.2564   -1.2771   -6.6913 H   0  0  0  0  0  0  0  0  0  0  0  0
    5.3087   -0.4237   -3.8005 H   0  0  0  0  0  0  0  0  0  0  0  0
    6.2446    1.3148   -3.1269 H   0  0  0  0  0  0  0  0  0  0  0  0
    7.3210    0.1429   -3.9245 H   0  0  0  0  0  0  0  0  0  0  0  0
    7.8390    1.8340   -3.7241 H   0  0  0  0  0  0  0  0  0  0  0  0
    3.5791    3.3229   -7.5777 H   0  0  0  0  0  0  0  0  0  0  0  0
    4.8480    3.6744   -6.3800 H   0  0  0  0  0  0  0  0  0  0  0  0
    5.1239    4.0355   -8.1009 H   0  0  0  0  0  0  0  0  0  0  0  0
    2.1766   -1.2815   -8.7799 H   0  0  0  0  0  0  0  0  0  0  0  0
    1.0991   -0.1101   -7.9827 H   0  0  0  0  0  0  0  0  0  0  0  0
    1.4993    0.0789   -9.7068 H   0  0  0  0  0  0  0  0  0  0  0  0
   -0.2846    1.4210   -3.4601 H   0  0  0  0  0  0  0  0  0  0  0  0
   -0.9995    0.5898   -4.8623 H   0  0  0  0  0  0  0  0  0  0  0  0
   -1.8059    0.5152   -3.2772 H   0  0  0  0  0  0  0  0  0  0  0  0
  1  2  1  0  0  0  0
  1 44  1  0  0  0  0
  1 45  1  0  0  0  0
  1 46  1  0  0  0  0
  2  7  2  0  0  0  0
  2  3  1  0  0  0  0
  3  4  2  0  0  0  0
  3 47  1  0  0  0  0
  4  5  1  0  0  0  0
  4  8  1  0  0  0  0
  5  6  2  0  0  0  0
  5 48  1  0  0  0  0
  6  7  1  0  0  0  0
  6 49  1  0  0  0  0
  8  9  1  0  0  0  0
  8 50  1  0  0  0  0
  8 51  1  0  0  0  0
  9 18  1  0  0  0  0
  9 10  1  0  0  0  0
 10 11  2  0  0  0  0
 10 40  1  0  0  0  0
 11 12  1  0  0  0  0
 11 28  1  0  0  0  0
 12 17  2  0  0  0  0
 12 13  1  0  0  0  0
 13 14  2  0  0  0  0
 13 52  1  0  0  0  0
 14 15  1  0  0  0  0
 14 53  1  0  0  0  0
 15 16  2  0  0  0  0
 16 17  1  0  0  0  0
 16 20  1  0  0  0  0
 17 18  1  0  0  0  0
 18 19  2  0  0  0  0
 20 21  1  0  0  0  0
 21 22  1  0  0  0  0
 21 54  1  0  0  0  0
 21 55  1  0  0  0  0
 22 27  2  0  0  0  0
 22 23  1  0  0  0  0
 23 24  2  0  0  0  0
 24 25  1  0  0  0  0
 24 56  1  0  0  0  0
 25 26  2  0  0  0  0
 25 57  1  0  0  0  0
 26 27  1  0  0  0  0
 26 58  1  0  0  0  0
 28 33  2  0  0  0  0
 28 29  1  0  0  0  0
 29 30  2  0  0  0  0
 29 59  1  0  0  0  0
 30 31  1  0  0  0  0
 30 38  1  0  0  0  0
 31 32  2  0  0  0  0
 31 36  1  0  0  0  0
 32 33  1  0  0  0  0
 32 34  1  0  0  0  0
 33 60  1  0  0  0  0
 34 35  1  0  0  0  0
 35 61  1  0  0  0  0
 35 62  1  0  0  0  0
 35 63  1  0  0  0  0
 36 37  1  0  0  0  0
 37 64  1  0  0  0  0
 37 65  1  0  0  0  0
 37 66  1  0  0  0  0
 38 39  1  0  0  0  0
 39 67  1  0  0  0  0
 39 68  1  0  0  0  0
 39 69  1  0  0  0  0
 40 41  2  0  0  0  0
 40 42  1  0  0  0  0
 42 43  1  0  0  0  0
 43 70  1  0  0  0  0
 43 71  1  0  0  0  0
 43 72  1  0  0  0  0
M  END
$$$$
CHEMBL540294
  -OEChem-07121202283D

 73 77  0     0  0  0  0  0  0999 V2000
    0.4880    1.3225    0.5104 C   0  0  0  0  0  0  0  0  0  0  0  0
    0.3702   -0.1734    0.3710 C   0  0  0  0  0  0  0  0  0  0  0  0
    0.2878   -0.7378   -0.8881 C   0  0  0  0  0  0  0  0  0  0  0  0
    0.1797   -2.1148   -1.0053 C   0  0  0  0  0  0  0  0  0  0  0  0
    0.1585   -2.8762    0.1535 C   0  0  0  0  0  0  0  0  0  0  0  0
    0.2451   -2.2415    1.3779 C   0  0  0  0  0  0  0  0  0  0  0  0
    0.3523   -0.9291    1.4513 N   0  3  0  0  0  0  0  0  0  0  0  0
    0.0870   -2.7689   -2.3599 C   0  0  0  0  0  0  0  0  0  0  0  0
    1.4325   -2.9348   -2.9151 N   0  0  0  0  0  0  0  0  0  0  0  0
    1.9424   -1.9462   -3.7291 C   0  0  0  0  0  0  0  0  0  0  0  0
    3.2045   -2.0438   -4.2833 C   0  0  0  0  0  0  0  0  0  0  0  0
    4.0161   -3.2333   -3.9928 C   0  0  0  0  0  0  0  0  0  0  0  0
    5.2991   -3.4141   -4.5087 C   0  0  0  0  0  0  0  0  0  0  0  0
    5.9868   -4.5648   -4.1801 C   0  0  0  0  0  0  0  0  0  0  0  0
    5.4578   -5.4868   -3.3950 N   0  0  0  0  0  0  0  0  0  0  0  0
    4.2460   -5.3702   -2.8767 C   0  0  0  0  0  0  0  0  0  0  0  0
    3.4753   -4.2356   -3.1560 C   0  0  0  0  0  0  0  0  0  0  0  0
    2.1298   -4.0455   -2.6077 C   0  0  0  0  0  0  0  0  0  0  0  0
    1.6417   -4.8912   -1.8802 O   0  0  0  0  0  0  0  0  0  0  0  0
    3.7526   -6.3463   -2.0778 O   0  0  0  0  0  0  0  0  0  0  0  0
    4.5951   -7.4750   -1.8366 C   0  0  0  0  0  0  0  0  0  0  0  0
    3.8835   -8.4491   -0.9334 C   0  0  0  0  0  0  0  0  0  0  0  0
    4.0211   -8.3316    0.3720 N   0  0  0  0  0  0  0  0  0  0  0  0
    3.4115   -9.1686    1.1961 C   0  0  0  0  0  0  0  0  0  0  0  0
    2.6208  -10.1775    0.6690 C   0  0  0  0  0  0  0  0  0  0  0  0
    2.5004  -10.2690   -0.7087 C   0  0  0  0  0  0  0  0  0  0  0  0
    3.1358   -9.3926   -1.4699 N   0  0  0  0  0  0  0  0  0  0  0  0
    3.7285   -0.9704   -5.1534 C   0  0  0  0  0  0  0  0  0  0  0  0
    3.1145   -0.7008   -6.3784 C   0  0  0  0  0  0  0  0  0  0  0  0
    3.6065    0.3046   -7.1907 C   0  0  0  0  0  0  0  0  0  0  0  0
    4.7126    1.0474   -6.7882 C   0  0  0  0  0  0  0  0  0  0  0  0
    5.3263    0.7807   -5.5677 C   0  0  0  0  0  0  0  0  0  0  0  0
    4.8349   -0.2201   -4.7494 C   0  0  0  0  0  0  0  0  0  0  0  0
    6.4072    1.5079   -5.1775 O   0  0  0  0  0  0  0  0  0  0  0  0
    6.9873    1.1805   -3.9133 C   0  0  0  0  0  0  0  0  0  0  0  0
    5.1947    2.0352   -7.5889 O   0  0  0  0  0  0  0  0  0  0  0  0
    4.6544    3.3447   -7.4007 C   0  0  0  0  0  0  0  0  0  0  0  0
    3.0093    0.5674   -8.3839 O   0  0  0  0  0  0  0  0  0  0  0  0
    1.8790   -0.2338   -8.7341 C   0  0  0  0  0  0  0  0  0  0  0  0
    1.1237   -0.7599   -4.0150 C   0  0  0  0  0  0  0  0  0  0  0  0
    1.5503    0.1107   -4.7485 O   0  0  0  0  0  0  0  0  0  0  0  0
   -0.1010   -0.6369   -3.4635 O   0  0  0  0  0  0  0  0  0  0  0  0
   -0.8416    0.5422   -3.7848 C   0  0  0  0  0  0  0  0  0  0  0  0
    1.5405    1.6060    0.5069 H   0  0  0  0  0  0  0  0  0  0  0  0
   -0.0214    1.8063   -0.3231 H   0  0  0  0  0  0  0  0  0  0  0  0
    0.0300    1.6373    1.4481 H   0  0  0  0  0  0  0  0  0  0  0  0
    0.3070   -0.1138   -1.7694 H   0  0  0  0  0  0  0  0  0  0  0  0
    0.0749   -3.9516    0.0998 H   0  0  0  0  0  0  0  0  0  0  0  0
    0.2292   -2.8274    2.2850 H   0  0  0  0  0  0  0  0  0  0  0  0
   -0.3879   -3.7449   -2.2603 H   0  0  0  0  0  0  0  0  0  0  0  0
   -0.5062   -2.1424   -3.0260 H   0  0  0  0  0  0  0  0  0  0  0  0
    5.7449   -2.6698   -5.1519 H   0  0  0  0  0  0  0  0  0  0  0  0
    6.9809   -4.7154   -4.5743 H   0  0  0  0  0  0  0  0  0  0  0  0
    4.8299   -7.9620   -2.7831 H   0  0  0  0  0  0  0  0  0  0  0  0
    5.5176   -7.1444   -1.3594 H   0  0  0  0  0  0  0  0  0  0  0  0
    3.5288   -9.0670    2.2649 H   0  0  0  0  0  0  0  0  0  0  0  0
    2.1111  -10.8759    1.3163 H   0  0  0  0  0  0  0  0  0  0  0  0
    1.8931  -11.0426   -1.1548 H   0  0  0  0  0  0  0  0  0  0  0  0
    2.2564   -1.2771   -6.6913 H   0  0  0  0  0  0  0  0  0  0  0  0
    5.3087   -0.4237   -3.8005 H   0  0  0  0  0  0  0  0  0  0  0  0
    7.8390    1.8340   -3.7241 H   0  0  0  0  0  0  0  0  0  0  0  0
    6.2446    1.3148   -3.1269 H   0  0  0  0  0  0  0  0  0  0  0  0
    7.3210    0.1429   -3.9245 H   0  0  0  0  0  0  0  0  0  0  0  0
    3.5791    3.3229   -7.5777 H   0  0  0  0  0  0  0  0  0  0  0  0
    4.8480    3.6744   -6.3800 H   0  0  0  0  0  0  0  0  0  0  0  0
    5.1239    4.0355   -8.1009 H   0  0  0  0  0  0  0  0  0  0  0  0
    1.0991   -0.1101   -7.9827 H   0  0  0  0  0  0  0  0  0  0  0  0
    1.4993    0.0789   -9.7068 H   0  0  0  0  0  0  0  0  0  0  0  0
    2.1766   -1.2815   -8.7799 H   0  0  0  0  0  0  0  0  0  0  0  0
   -0.2846    1.4210   -3.4601 H   0  0  0  0  0  0  0  0  0  0  0  0
   -0.9995    0.5898   -4.8623 H   0  0  0  0  0  0  0  0  0  0  0  0
   -1.8059    0.5152   -3.2772 H   0  0  0  0  0  0  0  0  0  0  0  0
    0.4156   -0.5084    2.3231 H   0  0  0  0  0  0  0  0  0  0  0  0
  1  2  1  0  0  0  0
  1 44  1  0  0  0  0
  1 45  1  0  0  0  0
  1 46  1  0  0  0  0
  2  7  2  0  0  0  0
  2  3  1  0  0  0  0
  3  4  2  0  0  0  0
  3 47  1  0  0  0  0
  4  5  1  0  0  0  0
  4  8  1  0  0  0  0
  5  6  2  0  0  0  0
  5 48  1  0  0  0  0
  6  7  1  0  0  0  0
  6 49  1  0  0  0  0
  7 73  1  0  0  0  0
  8  9  1  0  0  0  0
  8 50  1  0  0  0  0
  8 51  1  0  0  0  0
  9 18  1  0  0  0  0
  9 10  1  0  0  0  0
 10 11  2  0  0  0  0
 10 40  1  0  0  0  0
 11 12  1  0  0  0  0
 11 28  1  0  0  0  0
 12 17  2  0  0  0  0
 12 13  1  0  0  0  0
 13 14  2  0  0  0  0
 13 52  1  0  0  0  0
 14 15  1  0  0  0  0
 14 53  1  0  0  0  0
 15 16  2  0  0  0  0
 16 17  1  0  0  0  0
 16 20  1  0  0  0  0
 17 18  1  0  0  0  0
 18 19  2  0  0  0  0
 20 21  1  0  0  0  0
 21 22  1  0  0  0  0
 21 54  1  0  0  0  0
 21 55  1  0  0  0  0
 22 27  2  0  0  0  0
 22 23  1  0  0  0  0
 23 24  2  0  0  0  0
 24 25  1  0  0  0  0
 24 56  1  0  0  0  0
 25 26  2  0  0  0  0
 25 57  1  0  0  0  0
 26 27  1  0  0  0  0
 26 58  1  0  0  0  0
 28 33  2  0  0  0  0
 28 29  1  0  0  0  0
 29 30  2  0  0  0  0
 29 59  1  0  0  0  0
 30 31  1  0  0  0  0
 30 38  1  0  0  0  0
 31 32  2  0  0  0  0
 31 36  1  0  0  0  0
 32 33  1  0  0  0  0
 32 34  1  0  0  0  0
 33 60  1  0  0  0  0
 34 35  1  0  0  0  0
 35 61  1  0  0  0  0
 35 62  1  0  0  0  0
 35 63  1  0  0  0  0
 36 37  1  0  0  0  0
 37 64  1  0  0  0  0
 37 65  1  0  0  0  0
 37 66  1  0  0  0  0
 38 39  1  0  0  0  0
 39 67  1  0  0  0  0
 39 68  1  0  0  0  0
 39 69  1  0  0  0  0
 40 41  2  0  0  0  0
 40 42  1  0  0  0  0
 42 43  1  0  0  0  0
 43 70  1  0  0  0  0
 43 71  1  0  0  0  0
 43 72  1  0  0  0  0
M  CHG  1   7   1
M  END
$$$$
CHEMBL72875
  -OEChem-07121202283D

 69 72  0     0  0  0  0  0  0999 V2000
   -0.0173    1.4248    0.0099 C   0  0  0  0  0  0  0  0  0  0  0  0
    0.0021   -0.0041    0.0020 O   0  0  0  0  0  0  0  0  0  0  0  0
   -1.2011   -0.6379    0.0101 C   0  0  0  0  0  0  0  0  0  0  0  0
   -2.3708    0.1001    0.0195 C   0  0  0  0  0  0  0  0  0  0  0  0
   -3.6060   -0.5514    0.0278 C   0  0  0  0  0  0  0  0  0  0  0  0
   -3.6567   -1.9470    0.0266 C   0  0  0  0  0  0  0  0  0  0  0  0
   -2.4842   -2.6804    0.0171 C   0  0  0  0  0  0  0  0  0  0  0  0
   -1.2544   -2.0287    0.0031 C   0  0  0  0  0  0  0  0  0  0  0  0
   -0.1030   -2.7521   -0.0122 O   0  0  0  0  0  0  0  0  0  0  0  0
    0.4589   -3.1040    1.2537 C   0  0  0  0  0  0  0  0  0  0  0  0
   -2.5330   -4.0395    0.0159 O   0  0  0  0  0  0  0  0  0  0  0  0
   -3.8286   -4.6422    0.0247 C   0  0  0  0  0  0  0  0  0  0  0  0
   -4.8573    0.2347    0.0384 C   0  0  0  0  0  0  0  0  0  0  0  0
   -5.1922    1.0881    1.1886 C   0  0  0  0  0  0  0  0  0  0  0  0
   -4.3511    1.1841    2.2947 C   0  0  0  0  0  0  0  0  0  0  0  0
   -4.7052    1.9990    3.3540 C   0  0  0  0  0  0  0  0  0  0  0  0
   -5.9000    2.7250    3.3215 C   0  0  0  0  0  0  0  0  0  0  0  0
   -6.7437    2.6391    2.2306 C   0  0  0  0  0  0  0  0  0  0  0  0
   -6.3996    1.8218    1.1549 C   0  0  0  0  0  0  0  0  0  0  0  0
   -7.2668    1.7015   -0.0247 C   0  0  0  0  0  0  0  0  0  0  0  0
   -8.3121    2.3235   -0.0786 O   0  0  0  0  0  0  0  0  0  0  0  0
   -6.9045    0.9033   -1.0462 N   0  0  0  0  0  0  0  0  0  0  0  0
   -5.7264    0.1828   -1.0347 C   0  0  0  0  0  0  0  0  0  0  0  0
   -5.3929   -0.6621   -2.1856 C   0  0  0  0  0  0  0  0  0  0  0  0
   -6.1475   -0.7184   -3.1376 O   0  0  0  0  0  0  0  0  0  0  0  0
   -4.2487   -1.3771   -2.1885 O   0  0  0  0  0  0  0  0  0  0  0  0
   -3.9875   -2.1785   -3.3424 C   0  0  0  0  0  0  0  0  0  0  0  0
   -7.7268    0.8071   -2.1328 N   0  0  0  0  0  0  0  0  0  0  0  0
   -7.8354    2.0969   -2.8264 C   0  0  0  0  0  0  0  0  0  0  0  0
   -8.6427    1.9186   -4.1142 C   0  0  0  0  0  0  0  0  0  0  0  0
  -10.0355    1.3851   -3.7681 C   0  0  0  0  0  0  0  0  0  0  0  0
   -9.8929    0.0659   -3.0041 C   0  0  0  0  0  0  0  0  0  0  0  0
   -9.0494    0.2978   -1.7484 C   0  0  0  0  0  0  0  0  0  0  0  0
   -6.2341    3.5208    4.3712 O   0  0  0  0  0  0  0  0  0  0  0  0
   -7.4676    4.2360    4.2763 C   0  0  0  0  0  0  0  0  0  0  0  0
   -3.8871    2.0948    4.4340 O   0  0  0  0  0  0  0  0  0  0  0  0
   -2.6820    1.3274    4.4051 C   0  0  0  0  0  0  0  0  0  0  0  0
    1.0053    1.8021    0.0021 H   0  0  0  0  0  0  0  0  0  0  0  0
   -0.5445    1.7859   -0.8732 H   0  0  0  0  0  0  0  0  0  0  0  0
   -0.5275    1.7763    0.9067 H   0  0  0  0  0  0  0  0  0  0  0  0
   -2.3289    1.1792    0.0208 H   0  0  0  0  0  0  0  0  0  0  0  0
   -4.6107   -2.4531    0.0333 H   0  0  0  0  0  0  0  0  0  0  0  0
    1.3725   -3.6781    1.0987 H   0  0  0  0  0  0  0  0  0  0  0  0
    0.6899   -2.1976    1.8133 H   0  0  0  0  0  0  0  0  0  0  0  0
   -0.2569   -3.7048    1.8146 H   0  0  0  0  0  0  0  0  0  0  0  0
   -3.7247   -5.7272    0.0227 H   0  0  0  0  0  0  0  0  0  0  0  0
   -4.3682   -4.3306    0.9190 H   0  0  0  0  0  0  0  0  0  0  0  0
   -4.3813   -4.3285   -0.8609 H   0  0  0  0  0  0  0  0  0  0  0  0
   -3.4276    0.6249    2.3248 H   0  0  0  0  0  0  0  0  0  0  0  0
   -7.6652    3.2019    2.2116 H   0  0  0  0  0  0  0  0  0  0  0  0
   -4.7885   -2.9071   -3.4677 H   0  0  0  0  0  0  0  0  0  0  0  0
   -3.9360   -1.5399   -4.2242 H   0  0  0  0  0  0  0  0  0  0  0  0
   -3.0387   -2.6999   -3.2155 H   0  0  0  0  0  0  0  0  0  0  0  0
   -8.3379    2.8159   -2.1794 H   0  0  0  0  0  0  0  0  0  0  0  0
   -6.8382    2.4631   -3.0705 H   0  0  0  0  0  0  0  0  0  0  0  0
   -8.7364    2.8791   -4.6209 H   0  0  0  0  0  0  0  0  0  0  0  0
   -8.1336    1.2100   -4.7676 H   0  0  0  0  0  0  0  0  0  0  0  0
  -10.5596    2.1112   -3.1465 H   0  0  0  0  0  0  0  0  0  0  0  0
  -10.5991    1.2157   -4.6856 H   0  0  0  0  0  0  0  0  0  0  0  0
  -10.8798   -0.2973   -2.7175 H   0  0  0  0  0  0  0  0  0  0  0  0
   -9.4035   -0.6718   -3.6400 H   0  0  0  0  0  0  0  0  0  0  0  0
   -8.9339   -0.6426   -1.2096 H   0  0  0  0  0  0  0  0  0  0  0  0
   -9.5462    1.0253   -1.1065 H   0  0  0  0  0  0  0  0  0  0  0  0
   -7.4405    4.8934    3.4073 H   0  0  0  0  0  0  0  0  0  0  0  0
   -8.2904    3.5288    4.1714 H   0  0  0  0  0  0  0  0  0  0  0  0
   -7.6128    4.8312    5.1778 H   0  0  0  0  0  0  0  0  0  0  0  0
   -2.0770    1.6330    3.5514 H   0  0  0  0  0  0  0  0  0  0  0  0
   -2.1224    1.4948    5.3254 H   0  0  0  0  0  0  0  0  0  0  0  0
   -2.9272    0.2691    4.3164 H   0  0  0  0  0  0  0  0  0  0  0  0
  1  2  1  0  0  0  0
  1 38  1  0  0  0  0
  1 39  1  0  0  0  0
  1 40  1  0  0  0  0
  2  3  1  0  0  0  0
  3  8  2  0  0  0  0
  3  4  1  0  0  0  0
  4  5  2  0  0  0  0
  4 41  1  0  0  0  0
  5  6  1  0  0  0  0
  5 13  1  0  0  0  0
  6  7  2  0  0  0  0
  6 42  1  0  0  0  0
  7  8  1  0  0  0  0
  7 11  1  0  0  0  0
  8  9  1  0  0  0  0
  9 10  1  0  0  0  0
 10 43  1  0  0  0  0
 10 44  1  0  0  0  0
 10 45  1  0  0  0  0
 11 12  1  0  0  0  0
 12 46  1  0  0  0  0
 12 47  1  0  0  0  0
 12 48  1  0  0  0  0
 13 23  2  0  0  0  0
 13 14  1  0  0  0  0
 14 19  2  0  0  0  0
 14 15  1  0  0  0  0
 15 16  2  0  0  0  0
 15 49  1  0  0  0  0
 16 17  1  0  0  0  0
 16 36  1  0  0  0  0
 17 18  2  0  0  0  0
 17 34  1  0  0  0  0
 18 19  1  0  0  0  0
 18 50  1  0  0  0  0
 19 20  1  0  0  0  0
 20 21  2  0  0  0  0
 20 22  1  0  0  0  0
 22 23  1  0  0  0  0
 22 28  1  0  0  0  0
 23 24  1  0  0  0  0
 24 25  2  0  0  0  0
 24 26  1  0  0  0  0
 26 27  1  0  0  0  0
 27 51  1  0  0  0  0
 27 52  1  0  0  0  0
 27 53  1  0  0  0  0
 28 33  1  0  0  0  0
 28 29  1  0  0  0  0
 29 30  1  0  0  0  0
 29 54  1  0  0  0  0
 29 55  1  0  0  0  0
 30 31  1  0  0  0  0
 30 56  1  0  0  0  0
 30 57  1  0  0  0  0
 31 32  1  0  0  0  0
 31 58  1  0  0  0  0
 31 59  1  0  0  0  0
 32 33  1  0  0  0  0
 32 60  1  0  0  0  0
 32 61  1  0  0  0  0
 33 62  1  0  0  0  0
 33 63  1  0  0  0  0
 34 35  1  0  0  0  0
 35 64  1  0  0  0  0
 35 65  1  0  0  0  0
 35 66  1  0  0  0  0
 36 37  1  0  0  0  0
 37 67  1  0  0  0  0
 37 68  1  0  0  0  0
 37 69  1  0  0  0  0
M  END
$$$$
CHEMBL342876
  -OEChem-07121202283D

 57 62  0     1  0  0  0  0  0999 V2000
   -0.0173    1.4248    0.0099 C   0  0  0  0  0  0  0  0  0  0  0  0
    0.0021   -0.0041    0.0020 O   0  0  0  0  0  0  0  0  0  0  0  0
   -1.2003   -0.6375    0.0101 C   0  0  0  0  0  0  0  0  0  0  0  0
   -2.3746    0.1011    0.0195 C   0  0  0  0  0  0  0  0  0  0  0  0
   -3.5956   -0.5451    0.0272 C   0  0  0  0  0  0  0  0  0  0  0  0
   -3.6478   -1.9268    0.0260 C   0  0  0  0  0  0  0  0  0  0  0  0
   -2.4788   -2.6651    0.0172 C   0  0  0  0  0  0  0  0  0  0  0  0
   -1.2554   -2.0237    0.0032 C   0  0  0  0  0  0  0  0  0  0  0  0
   -4.9811   -2.6292    0.0350 C   0  0  1  0  0  0  0  0  0  0  0  0
   -5.7443   -1.9386    0.3937 H   0  0  0  0  0  0  0  0  0  0  0  0
   -5.3220   -3.0521   -1.3660 C   0  0  0  0  0  0  0  0  0  0  0  0
   -5.8562   -4.2551   -1.6702 C   0  0  0  0  0  0  0  0  0  0  0  0
   -6.0564   -4.2897   -3.1014 C   0  0  0  0  0  0  0  0  0  0  0  0
   -6.5720   -5.2594   -3.9671 C   0  0  0  0  0  0  0  0  0  0  0  0
   -6.6136   -4.9413   -5.3020 C   0  0  0  0  0  0  0  0  0  0  0  0
   -6.1695   -3.7201   -5.7820 C   0  0  0  0  0  0  0  0  0  0  0  0
   -5.6544   -2.7425   -4.9487 C   0  0  0  0  0  0  0  0  0  0  0  0
   -5.5983   -3.0378   -3.5882 C   0  0  0  0  0  0  0  0  0  0  0  0
   -5.1585   -2.3198   -2.5134 N   0  0  0  0  0  0  0  0  0  0  0  0
   -4.7860   -1.4252   -2.5554 H   0  0  0  0  0  0  0  0  0  0  0  0
   -6.1370   -5.3108   -0.6366 C   0  0  0  0  0  0  0  0  0  0  0  0
   -6.0102   -4.7468    0.7520 C   0  0  1  0  0  0  0  0  0  0  0  0
   -5.8133   -5.5813    1.4250 H   0  0  0  0  0  0  0  0  0  0  0  0
   -4.9103   -3.7826    0.9464 N   0  0  2  0  0  0  0  0  0  0  0  0
   -5.3162   -3.2568    2.2975 C   0  0  0  0  0  0  0  0  0  0  0  0
   -6.7872   -3.1556    2.2068 N   0  0  0  0  0  0  0  0  0  0  0  0
   -7.2295   -4.0390    1.2734 C   0  0  0  0  0  0  0  0  0  0  0  0
   -8.3783   -4.2211    0.9299 O   0  0  0  0  0  0  0  0  0  0  0  0
   -7.6308   -2.2517    2.9925 C   0  0  0  0  0  0  0  0  0  0  0  0
   -7.7895   -0.9461    2.2567 C   0  0  0  0  0  0  0  0  0  0  0  0
   -6.8865    0.0794    2.4659 C   0  0  0  0  0  0  0  0  0  0  0  0
   -7.0321    1.2769    1.7910 C   0  0  0  0  0  0  0  0  0  0  0  0
   -8.0804    1.4488    0.9065 C   0  0  0  0  0  0  0  0  0  0  0  0
   -8.9829    0.4230    0.6966 C   0  0  0  0  0  0  0  0  0  0  0  0
   -8.8349   -0.7761    1.3684 C   0  0  0  0  0  0  0  0  0  0  0  0
    1.0053    1.8021    0.0021 H   0  0  0  0  0  0  0  0  0  0  0  0
   -0.5445    1.7859   -0.8732 H   0  0  0  0  0  0  0  0  0  0  0  0
   -0.5275    1.7763    0.9067 H   0  0  0  0  0  0  0  0  0  0  0  0
   -2.3343    1.1803    0.0211 H   0  0  0  0  0  0  0  0  0  0  0  0
   -4.5101    0.0294    0.0345 H   0  0  0  0  0  0  0  0  0  0  0  0
   -2.5223   -3.7443    0.0166 H   0  0  0  0  0  0  0  0  0  0  0  0
   -0.3427   -2.6008   -0.0082 H   0  0  0  0  0  0  0  0  0  0  0  0
   -6.9208   -6.2143   -3.6026 H   0  0  0  0  0  0  0  0  0  0  0  0
   -7.0055   -5.6662   -6.0001 H   0  0  0  0  0  0  0  0  0  0  0  0
   -6.2274   -3.5241   -6.8425 H   0  0  0  0  0  0  0  0  0  0  0  0
   -5.3110   -1.7944   -5.3353 H   0  0  0  0  0  0  0  0  0  0  0  0
   -7.1486   -5.6912   -0.7781 H   0  0  0  0  0  0  0  0  0  0  0  0
   -5.4269   -6.1289   -0.7575 H   0  0  0  0  0  0  0  0  0  0  0  0
   -5.0280   -3.9556    3.0828 H   0  0  0  0  0  0  0  0  0  0  0  0
   -4.8750   -2.2761    2.4753 H   0  0  0  0  0  0  0  0  0  0  0  0
   -8.6102   -2.7063    3.1414 H   0  0  0  0  0  0  0  0  0  0  0  0
   -7.1642   -2.0688    3.9605 H   0  0  0  0  0  0  0  0  0  0  0  0
   -6.0674   -0.0549    3.1569 H   0  0  0  0  0  0  0  0  0  0  0  0
   -6.3270    2.0784    1.9549 H   0  0  0  0  0  0  0  0  0  0  0  0
   -8.1946    2.3847    0.3797 H   0  0  0  0  0  0  0  0  0  0  0  0
   -9.8022    0.5574    0.0059 H   0  0  0  0  0  0  0  0  0  0  0  0
   -9.5378   -1.5789    1.2016 H   0  0  0  0  0  0  0  0  0  0  0  0
  1  2  1  0  0  0  0
  1 36  1  0  0  0  0
  1 37  1  0  0  0  0
  1 38  1  0  0  0  0
  2  3  1  0  0  0  0
  3  8  2  0  0  0  0
  3  4  1  0  0  0  0
  4  5  2  0  0  0  0
  4 39  1  0  0  0  0
  5  6  1  0  0  0  0
  5 40  1  0  0  0  0
  6  7  2  0  0  0  0
  6  9  1  0  0  0  0
  7  8  1  0  0  0  0
  7 41  1  0  0  0  0
  8 42  1  0  0  0  0
  9 10  1  0  0  0  0
  9 24  1  0  0  0  0
  9 11  1  0  0  0  0
 11 19  1  0  0  0  0
 11 12  2  0  0  0  0
 12 13  1  0  0  0  0
 12 21  1  0  0  0  0
 13 18  2  0  0  0  0
 13 14  1  0  0  0  0
 14 15  2  0  0  0  0
 14 43  1  0  0  0  0
 15 16  1  0  0  0  0
 15 44  1  0  0  0  0
 16 17  2  0  0  0  0
 16 45  1  0  0  0  0
 17 18  1  0  0  0  0
 17 46  1  0  0  0  0
 18 19  1  0  0  0  0
 19 20  1  0  0  0  0
 21 22  1  0  0  0  0
 21 47  1  0  0  0  0
 21 48  1  0  0  0  0
 22 23  1  0  0  0  0
 22 27  1  0  0  0  0
 22 24  1  0  0  0  0
 24 25  1  0  0  0  0
 25 26  1  0  0  0  0
 25 49  1  0  0  0  0
 25 50  1  0  0  0  0
 26 27  1  0  0  0  0
 26 29  1  0  0  0  0
 27 28  2  0  0  0  0
 29 30  1  0  0  0  0
 29 51  1  0  0  0  0
 29 52  1  0  0  0  0
 30 35  2  0  0  0  0
 30 31  1  0  0  0  0
 31 32  2  0  0  0  0
 31 53  1  0  0  0  0
 32 33  1  0  0  0  0
 32 54  1  0  0  0  0
 33 34  2  0  0  0  0
 33 55  1  0  0  0  0
 34 35  1  0  0  0  0
 34 56  1  0  0  0  0
 35 57  1  0  0  0  0
M  END
$$$$
CHEMBL140173
  -OEChem-07121202283D

 47 51  0     1  0  0  0  0  0999 V2000
   -0.0178    1.4608    0.0101 C   0  0  0  0  0  0  0  0  0  0  0  0
    0.0021   -0.0041    0.0020 N   0  0  0  0  0  0  0  0  0  0  0  0
    0.0077   -0.7809   -1.0935 C   0  0  0  0  0  0  0  0  0  0  0  0
    0.0281   -2.0894   -0.6689 C   0  0  0  0  0  0  0  0  0  0  0  0
    0.0349   -2.0757    0.7510 C   0  0  0  0  0  0  0  0  0  0  0  0
    0.0245   -0.8265    1.1354 N   0  0  0  0  0  0  0  0  0  0  0  0
    0.0562   -3.2901    1.4400 N   0  0  0  0  0  0  0  0  0  0  0  0
    0.0682   -3.5502    2.8902 C   0  0  1  0  0  0  0  0  0  0  0  0
    0.9255   -3.0942    3.3854 H   0  0  0  0  0  0  0  0  0  0  0  0
   -1.2708   -3.0885    3.4987 C   0  0  0  0  0  0  0  0  0  0  0  0
   -2.2027   -4.3164    3.3516 C   0  0  0  0  0  0  0  0  0  0  0  0
   -1.2510   -5.5038    3.6386 C   0  0  0  0  0  0  0  0  0  0  0  0
    0.0927   -5.0941    2.9719 C   0  0  1  0  0  0  0  0  0  0  0  0
    0.9584   -5.4609    3.5233 H   0  0  0  0  0  0  0  0  0  0  0  0
    0.0928   -5.5182    1.5701 N   0  3  0  0  0  0  0  0  0  0  0  0
    0.0712   -4.4853    0.7705 C   0  0  0  0  0  0  0  0  0  0  0  0
    0.0631   -4.5150   -0.6172 N   0  0  0  0  0  0  0  0  0  0  0  0
    0.0428   -3.3899   -1.3528 C   0  0  0  0  0  0  0  0  0  0  0  0
    0.0361   -3.4478   -2.5676 O   0  0  0  0  0  0  0  0  0  0  0  0
    0.0780   -5.8108   -1.3004 C   0  0  0  0  0  0  0  0  0  0  0  0
   -0.0063   -0.3069   -2.5239 C   0  0  0  0  0  0  0  0  0  0  0  0
    1.4097   -0.1291   -3.0081 C   0  0  0  0  0  0  0  0  0  0  0  0
    2.0472    1.0870   -2.8483 C   0  0  0  0  0  0  0  0  0  0  0  0
    3.3461    1.2501   -3.2924 C   0  0  0  0  0  0  0  0  0  0  0  0
    4.0076    0.1969   -3.8959 C   0  0  0  0  0  0  0  0  0  0  0  0
    3.3703   -1.0195   -4.0548 C   0  0  0  0  0  0  0  0  0  0  0  0
    2.0730   -1.1838   -3.6068 C   0  0  0  0  0  0  0  0  0  0  0  0
    1.0048    1.8381    0.0023 H   0  0  0  0  0  0  0  0  0  0  0  0
   -0.5450    1.8219   -0.8730 H   0  0  0  0  0  0  0  0  0  0  0  0
   -0.5280    1.8123    0.9069 H   0  0  0  0  0  0  0  0  0  0  0  0
   -1.1428   -2.8310    4.5501 H   0  0  0  0  0  0  0  0  0  0  0  0
   -1.6690   -2.2393    2.9433 H   0  0  0  0  0  0  0  0  0  0  0  0
   -3.0077   -4.2805    4.0856 H   0  0  0  0  0  0  0  0  0  0  0  0
   -2.6034   -4.3783    2.3399 H   0  0  0  0  0  0  0  0  0  0  0  0
   -1.1152   -5.6329    4.7123 H   0  0  0  0  0  0  0  0  0  0  0  0
   -1.6368   -6.4189    3.1893 H   0  0  0  0  0  0  0  0  0  0  0  0
   -0.9459   -6.1474   -1.4635 H   0  0  0  0  0  0  0  0  0  0  0  0
    0.5844   -5.7096   -2.2603 H   0  0  0  0  0  0  0  0  0  0  0  0
    0.6064   -6.5396   -0.6859 H   0  0  0  0  0  0  0  0  0  0  0  0
   -0.5132   -1.0444   -3.1462 H   0  0  0  0  0  0  0  0  0  0  0  0
   -0.5338    0.6450   -2.5861 H   0  0  0  0  0  0  0  0  0  0  0  0
    1.5304    1.9098   -2.3769 H   0  0  0  0  0  0  0  0  0  0  0  0
    3.8439    2.2004   -3.1682 H   0  0  0  0  0  0  0  0  0  0  0  0
    5.0221    0.3245   -4.2435 H   0  0  0  0  0  0  0  0  0  0  0  0
    3.8870   -1.8422   -4.5266 H   0  0  0  0  0  0  0  0  0  0  0  0
    1.5764   -2.1352   -3.7276 H   0  0  0  0  0  0  0  0  0  0  0  0
    0.1073   -6.4420    1.2749 H   0  0  0  0  0  0  0  0  0  0  0  0
  1  2  1  0  0  0  0
  1 28  1  0  0  0  0
  1 29  1  0  0  0  0
  1 30  1  0  0  0  0
  2  6  1  0  0  0  0
  2  3  1  0  0  0  0
  3  4  2  0  0  0  0
  3 21  1  0  0  0  0
  4 18  1  0  0  0  0
  4  5  1  0  0  0  0
  5  6  2  0  0  0  0
  5  7  1  0  0  0  0
  7 16  1  0  0  0  0
  7  8  1  0  0  0  0
  8  9  1  0  0  0  0
  8 13  1  0  0  0  0
  8 10  1  0  0  0  0
 10 11  1  0  0  0  0
 10 31  1  0  0  0  0
 10 32  1  0  0  0  0
 11 12  1  0  0  0  0
 11 33  1  0  0  0  0
 11 34  1  0  0  0  0
 12 13  1  0  0  0  0
 12 35  1  0  0  0  0
 12 36  1  0  0  0  0
 13 14  1  0  0  0  0
 13 15  1  0  0  0  0
 15 16  2  0  0  0  0
 15 47  1  0  0  0  0
 16 17  1  0  0  0  0
 17 18  1  0  0  0  0
 17 20  1  0  0  0  0
 18 19  2  0  0  0  0
 20 37  1  0  0  0  0
 20 38  1  0  0  0  0
 20 39  1  0  0  0  0
 21 22  1  0  0  0  0
 21 40  1  0  0  0  0
 21 41  1  0  0  0  0
 22 27  2  0  0  0  0
 22 23  1  0  0  0  0
 23 24  2  0  0  0  0
 23 42  1  0  0  0  0
 24 25  1  0  0  0  0
 24 43  1  0  0  0  0
 25 26  2  0  0  0  0
 25 44  1  0  0  0  0
 26 27  1  0  0  0  0
 26 45  1  0  0  0  0
 27 46  1  0  0  0  0
M  CHG  1  15   1
M  END
$$$$
CHEMBL196289
  -OEChem-07121202283D

 56 60  0     1  0  0  0  0  0999 V2000
   -0.4350    1.4812   -0.2616 C   0  0  0  0  0  0  0  0  0  0  0  0
   -0.3221   -0.0436   -0.2060 C   0  0  0  0  0  0  0  0  0  0  0  0
    0.3646   -0.5508   -1.4757 C   0  0  2  0  0  0  0  0  0  0  0  0
   -0.5210   -0.2544   -2.6877 C   0  0  0  0  0  0  0  0  0  0  0  0
    0.5864   -2.0374   -1.3672 C   0  0  0  0  0  0  0  0  0  0  0  0
    0.1022   -2.6640   -0.3370 N   0  0  0  0  0  0  0  0  0  0  0  0
    0.2555   -3.9872   -0.1651 C   0  0  0  0  0  0  0  0  0  0  0  0
    0.9613   -4.7370   -1.1227 C   0  0  0  0  0  0  0  0  0  0  0  0
    1.1212   -6.1242   -0.9395 C   0  0  0  0  0  0  0  0  0  0  0  0
    0.6214   -6.7171    0.1074 N   0  0  0  0  0  0  0  0  0  0  0  0
   -0.0884   -6.0244    1.0908 N   0  0  0  0  0  0  0  0  0  0  0  0
   -0.2899   -4.6918    0.9963 C   0  0  0  0  0  0  0  0  0  0  0  0
   -0.9105   -4.0910    1.8569 O   0  0  0  0  0  0  0  0  0  0  0  0
   -0.6235   -6.7544    2.2427 C   0  0  0  0  0  0  0  0  0  0  0  0
   -2.0160   -7.2374    1.9288 C   0  0  0  0  0  0  0  0  0  0  0  0
   -3.1062   -6.4372    2.2157 C   0  0  0  0  0  0  0  0  0  0  0  0
   -4.3835   -6.8802    1.9277 C   0  0  0  0  0  0  0  0  0  0  0  0
   -4.5708   -8.1231    1.3523 C   0  0  0  0  0  0  0  0  0  0  0  0
   -3.4806   -8.9229    1.0646 C   0  0  0  0  0  0  0  0  0  0  0  0
   -2.2029   -8.4781    1.3486 C   0  0  0  0  0  0  0  0  0  0  0  0
    1.8771   -6.9302   -1.9642 C   0  0  0  0  0  0  0  0  0  0  0  0
    1.5029   -4.0253   -2.2800 C   0  0  0  0  0  0  0  0  0  0  0  0
    1.2823   -2.6673   -2.3585 N   0  0  0  0  0  0  0  0  0  0  0  0
    1.8807   -2.2144   -3.5398 N   0  0  0  0  0  0  0  0  0  0  0  0
    2.4358   -3.2411   -4.1580 C   0  0  0  0  0  0  0  0  0  0  0  0
    2.2246   -4.3939   -3.3900 C   0  0  0  0  0  0  0  0  0  0  0  0
    3.1703   -3.1818   -5.4458 C   0  0  0  0  0  0  0  0  0  0  0  0
    3.3218   -1.9606   -6.0991 C   0  0  0  0  0  0  0  0  0  0  0  0
    4.0094   -1.9209   -7.2996 C   0  0  0  0  0  0  0  0  0  0  0  0
    4.5237   -3.1055   -7.8079 C   0  0  0  0  0  0  0  0  0  0  0  0
    4.3362   -4.2820   -7.1066 C   0  0  0  0  0  0  0  0  0  0  0  0
    3.6820   -4.2910   -5.9628 N   0  0  0  0  0  0  0  0  0  0  0  0
    0.5615    1.9169   -0.3345 H   0  0  0  0  0  0  0  0  0  0  0  0
   -1.0227    1.7705   -1.1329 H   0  0  0  0  0  0  0  0  0  0  0  0
   -0.9242    1.8426    0.6429 H   0  0  0  0  0  0  0  0  0  0  0  0
    0.2655   -0.3329    0.6652 H   0  0  0  0  0  0  0  0  0  0  0  0
   -1.3186   -0.4793   -0.1331 H   0  0  0  0  0  0  0  0  0  0  0  0
    1.3243   -0.0480   -1.5954 H   0  0  0  0  0  0  0  0  0  0  0  0
   -1.4807   -0.7571   -2.5680 H   0  0  0  0  0  0  0  0  0  0  0  0
   -0.6815    0.8209   -2.7661 H   0  0  0  0  0  0  0  0  0  0  0  0
   -0.0318   -0.6157   -3.5922 H   0  0  0  0  0  0  0  0  0  0  0  0
    0.0170   -7.6091    2.4606 H   0  0  0  0  0  0  0  0  0  0  0  0
   -0.6547   -6.0936    3.1090 H   0  0  0  0  0  0  0  0  0  0  0  0
   -2.9599   -5.4662    2.6652 H   0  0  0  0  0  0  0  0  0  0  0  0
   -5.2353   -6.2554    2.1525 H   0  0  0  0  0  0  0  0  0  0  0  0
   -5.5688   -8.4695    1.1280 H   0  0  0  0  0  0  0  0  0  0  0  0
   -3.6269   -9.8940    0.6154 H   0  0  0  0  0  0  0  0  0  0  0  0
   -1.3510   -9.1014    1.1204 H   0  0  0  0  0  0  0  0  0  0  0  0
    2.8966   -6.5529   -2.0433 H   0  0  0  0  0  0  0  0  0  0  0  0
    1.8995   -7.9764   -1.6591 H   0  0  0  0  0  0  0  0  0  0  0  0
    1.3819   -6.8444   -2.9314 H   0  0  0  0  0  0  0  0  0  0  0  0
    2.5589   -5.3920   -3.6316 H   0  0  0  0  0  0  0  0  0  0  0  0
    2.9081   -1.0576   -5.6750 H   0  0  0  0  0  0  0  0  0  0  0  0
    4.1425   -0.9890   -7.8291 H   0  0  0  0  0  0  0  0  0  0  0  0
    5.0649   -3.1082   -8.7425 H   0  0  0  0  0  0  0  0  0  0  0  0
    4.7348   -5.2057   -7.4996 H   0  0  0  0  0  0  0  0  0  0  0  0
  1  2  1  0  0  0  0
  1 33  1  0  0  0  0
  1 34  1  0  0  0  0
  1 35  1  0  0  0  0
  2  3  1  0  0  0  0
  2 36  1  0  0  0  0
  2 37  1  0  0  0  0
  3  4  1  0  0  0  0
  3  5  1  0  0  0  0
  3 38  1  0  0  0  0
  4 39  1  0  0  0  0
  4 40  1  0  0  0  0
  4 41  1  0  0  0  0
  5 23  1  0  0  0  0
  5  6  2  0  0  0  0
  6  7  1  0  0  0  0
  7 12  1  0  0  0  0
  7  8  2  0  0  0  0
  8  9  1  0  0  0  0
  8 22  1  0  0  0  0
  9 10  2  0  0  0  0
  9 21  1  0  0  0  0
 10 11  1  0  0  0  0
 11 12  1  0  0  0  0
 11 14  1  0  0  0  0
 12 13  2  0  0  0  0
 14 15  1  0  0  0  0
 14 42  1  0  0  0  0
 14 43  1  0  0  0  0
 15 20  2  0  0  0  0
 15 16  1  0  0  0  0
 16 17  2  0  0  0  0
 16 44  1  0  0  0  0
 17 18  1  0  0  0  0
 17 45  1  0  0  0  0
 18 19  2  0  0  0  0
 18 46  1  0  0  0  0
 19 20  1  0  0  0  0
 19 47  1  0  0  0  0
 20 48  1  0  0  0  0
 21 49  1  0  0  0  0
 21 50  1  0  0  0  0
 21 51  1  0  0  0  0
 22 26  2  0  0  0  0
 22 23  1  0  0  0  0
 23 24  1  0  0  0  0
 24 25  2  0  0  0  0
 25 26  1  0  0  0  0
 25 27  1  0  0  0  0
 26 52  1  0  0  0  0
 27 32  2  0  0  0  0
 27 28  1  0  0  0  0
 28 29  2  0  0  0  0
 28 53  1  0  0  0  0
 29 30  1  0  0  0  0
 29 54  1  0  0  0  0
 30 31  2  0  0  0  0
 30 55  1  0  0  0  0
 31 32  1  0  0  0  0
 31 56  1  0  0  0  0
M  END
$$$$
CHEMBL196289
  -OEChem-07121202283D

 56 60  0     1  0  0  0  0  0999 V2000
   -0.4759    1.5253   -0.1898 C   0  0  0  0  0  0  0  0  0  0  0  0
   -0.3512    0.0008   -0.1563 C   0  0  0  0  0  0  0  0  0  0  0  0
    0.3383   -0.4827   -1.4337 C   0  0  1  0  0  0  0  0  0  0  0  0
    1.7757    0.0404   -1.4666 C   0  0  0  0  0  0  0  0  0  0  0  0
    0.3513   -1.9894   -1.4580 C   0  0  0  0  0  0  0  0  0  0  0  0
   -0.1006   -2.6312   -0.4225 N   0  0  0  0  0  0  0  0  0  0  0  0
   -0.1240   -3.9729   -0.3641 C   0  0  0  0  0  0  0  0  0  0  0  0
    0.3530   -4.7258   -1.4517 C   0  0  0  0  0  0  0  0  0  0  0  0
    0.3281   -6.1325   -1.3875 C   0  0  0  0  0  0  0  0  0  0  0  0
   -0.1325   -6.7404   -0.3312 N   0  0  0  0  0  0  0  0  0  0  0  0
   -0.6189   -6.0453    0.7783 N   0  0  0  0  0  0  0  0  0  0  0  0
   -0.6329   -4.6946    0.8032 C   0  0  0  0  0  0  0  0  0  0  0  0
   -1.0588   -4.0918    1.7738 O   0  0  0  0  0  0  0  0  0  0  0  0
   -1.1223   -6.7928    1.9333 C   0  0  0  0  0  0  0  0  0  0  0  0
   -2.5968   -7.0517    1.7602 C   0  0  0  0  0  0  0  0  0  0  0  0
   -3.5193   -6.1381    2.2348 C   0  0  0  0  0  0  0  0  0  0  0  0
   -4.8718   -6.3755    2.0760 C   0  0  0  0  0  0  0  0  0  0  0  0
   -5.3019   -7.5263    1.4423 C   0  0  0  0  0  0  0  0  0  0  0  0
   -4.3793   -8.4395    0.9669 C   0  0  0  0  0  0  0  0  0  0  0  0
   -3.0267   -8.2000    1.1219 C   0  0  0  0  0  0  0  0  0  0  0  0
    0.8386   -6.9421   -2.5516 C   0  0  0  0  0  0  0  0  0  0  0  0
    0.8597   -3.9970   -2.6140 C   0  0  0  0  0  0  0  0  0  0  0  0
    0.8324   -2.6199   -2.5693 N   0  0  0  0  0  0  0  0  0  0  0  0
    1.3543   -2.1520   -3.7806 N   0  0  0  0  0  0  0  0  0  0  0  0
    1.6808   -3.1872   -4.5330 C   0  0  0  0  0  0  0  0  0  0  0  0
    1.3909   -4.3627   -3.8277 C   0  0  0  0  0  0  0  0  0  0  0  0
    2.2672   -3.1170   -5.8941 C   0  0  0  0  0  0  0  0  0  0  0  0
    2.5212   -1.8758   -6.4738 C   0  0  0  0  0  0  0  0  0  0  0  0
    3.0685   -1.8262   -7.7440 C   0  0  0  0  0  0  0  0  0  0  0  0
    3.3441   -3.0212   -8.3937 C   0  0  0  0  0  0  0  0  0  0  0  0
    3.0665   -4.2176   -7.7591 C   0  0  0  0  0  0  0  0  0  0  0  0
    2.5503   -4.2365   -6.5469 N   0  0  0  0  0  0  0  0  0  0  0  0
    0.5171    1.9697   -0.2572 H   0  0  0  0  0  0  0  0  0  0  0  0
   -1.0666    1.8226   -1.0563 H   0  0  0  0  0  0  0  0  0  0  0  0
   -0.9671    1.8698    0.7203 H   0  0  0  0  0  0  0  0  0  0  0  0
    0.2394   -0.2965    0.7102 H   0  0  0  0  0  0  0  0  0  0  0  0
   -1.3442   -0.4436   -0.0889 H   0  0  0  0  0  0  0  0  0  0  0  0
   -0.2040   -0.1100   -2.3026 H   0  0  0  0  0  0  0  0  0  0  0  0
    2.3180   -0.3323   -0.5976 H   0  0  0  0  0  0  0  0  0  0  0  0
    2.2669   -0.3041   -2.3767 H   0  0  0  0  0  0  0  0  0  0  0  0
    1.7663    1.1302   -1.4490 H   0  0  0  0  0  0  0  0  0  0  0  0
   -0.5933   -7.7427    2.0101 H   0  0  0  0  0  0  0  0  0  0  0  0
   -0.9596   -6.2119    2.8411 H   0  0  0  0  0  0  0  0  0  0  0  0
   -3.1834   -5.2390    2.7299 H   0  0  0  0  0  0  0  0  0  0  0  0
   -5.5926   -5.6621    2.4474 H   0  0  0  0  0  0  0  0  0  0  0  0
   -6.3586   -7.7122    1.3189 H   0  0  0  0  0  0  0  0  0  0  0  0
   -4.7153   -9.3388    0.4721 H   0  0  0  0  0  0  0  0  0  0  0  0
   -2.3059   -8.9116    0.7472 H   0  0  0  0  0  0  0  0  0  0  0  0
    1.8870   -6.7022   -2.7290 H   0  0  0  0  0  0  0  0  0  0  0  0
    0.7420   -8.0040   -2.3258 H   0  0  0  0  0  0  0  0  0  0  0  0
    0.2560   -6.7055   -3.4420 H   0  0  0  0  0  0  0  0  0  0  0  0
    1.5466   -5.3723   -4.1782 H   0  0  0  0  0  0  0  0  0  0  0  0
    2.2940   -0.9651   -5.9395 H   0  0  0  0  0  0  0  0  0  0  0  0
    3.2761   -0.8788   -8.2191 H   0  0  0  0  0  0  0  0  0  0  0  0
    3.7709   -3.0165   -9.3858 H   0  0  0  0  0  0  0  0  0  0  0  0
    3.2794   -5.1493   -8.2620 H   0  0  0  0  0  0  0  0  0  0  0  0
  1  2  1  0  0  0  0
  1 33  1  0  0  0  0
  1 34  1  0  0  0  0
  1 35  1  0  0  0  0
  2  3  1  0  0  0  0
  2 36  1  0  0  0  0
  2 37  1  0  0  0  0
  3  4  1  0  0  0  0
  3  5  1  0  0  0  0
  3 38  1  0  0  0  0
  4 39  1  0  0  0  0
  4 40  1  0  0  0  0
  4 41  1  0  0  0  0
  5 23  1  0  0  0  0
  5  6  2  0  0  0  0
  6  7  1  0  0  0  0
  7 12  1  0  0  0  0
  7  8  2  0  0  0  0
  8  9  1  0  0  0  0
  8 22  1  0  0  0  0
  9 10  2  0  0  0  0
  9 21  1  0  0  0  0
 10 11  1  0  0  0  0
 11 12  1  0  0  0  0
 11 14  1  0  0  0  0
 12 13  2  0  0  0  0
 14 15  1  0  0  0  0
 14 42  1  0  0  0  0
 14 43  1  0  0  0  0
 15 20  2  0  0  0  0
 15 16  1  0  0  0  0
 16 17  2  0  0  0  0
 16 44  1  0  0  0  0
 17 18  1  0  0  0  0
 17 45  1  0  0  0  0
 18 19  2  0  0  0  0
 18 46  1  0  0  0  0
 19 20  1  0  0  0  0
 19 47  1  0  0  0  0
 20 48  1  0  0  0  0
 21 49  1  0  0  0  0
 21 50  1  0  0  0  0
 21 51  1  0  0  0  0
 22 26  2  0  0  0  0
 22 23  1  0  0  0  0
 23 24  1  0  0  0  0
 24 25  2  0  0  0  0
 25 26  1  0  0  0  0
 25 27  1  0  0  0  0
 26 52  1  0  0  0  0
 27 32  2  0  0  0  0
 27 28  1  0  0  0  0
 28 29  2  0  0  0  0
 28 53  1  0  0  0  0
 29 30  1  0  0  0  0
 29 54  1  0  0  0  0
 30 31  2  0  0  0  0
 30 55  1  0  0  0  0
 31 32  1  0  0  0  0
 31 56  1  0  0  0  0
M  END
$$$$
CHEMBL513593
  -OEChem-07121202283D

 68 71  0     0  0  0  0  0  0999 V2000
    0.5017    1.1705   -0.5169 C   0  0  0  0  0  0  0  0  0  0  0  0
    0.4629   -0.2577   -0.4856 O   0  0  0  0  0  0  0  0  0  0  0  0
   -0.7624   -0.8401   -0.4021 C   0  0  0  0  0  0  0  0  0  0  0  0
   -1.9039   -0.0534   -0.3570 C   0  0  0  0  0  0  0  0  0  0  0  0
   -3.1483   -0.6476   -0.2726 C   0  0  0  0  0  0  0  0  0  0  0  0
   -3.2570   -2.0255   -0.2325 C   0  0  0  0  0  0  0  0  0  0  0  0
   -2.1213   -2.8126   -0.2767 C   0  0  0  0  0  0  0  0  0  0  0  0
   -0.8739   -2.2233   -0.3675 C   0  0  0  0  0  0  0  0  0  0  0  0
    0.5517   -3.2119   -0.4303 Cl  0  0  0  0  0  0  0  0  0  0  0  0
   -4.6159   -2.6704   -0.1399 C   0  0  0  0  0  0  0  0  0  0  0  0
   -5.1341   -2.9133   -1.4885 N   0  0  0  0  0  0  0  0  0  0  0  0
   -6.3712   -3.4999   -1.6568 C   0  0  0  0  0  0  0  0  0  0  0  0
   -6.8874   -3.7487   -2.9507 C   0  0  0  0  0  0  0  0  0  0  0  0
   -6.1762   -3.4156   -4.1098 C   0  0  0  0  0  0  0  0  0  0  0  0
   -6.7231   -3.6791   -5.3352 C   0  0  0  0  0  0  0  0  0  0  0  0
   -7.9874   -4.2787   -5.4414 C   0  0  0  0  0  0  0  0  0  0  0  0
   -8.7007   -4.6124   -4.3243 C   0  0  0  0  0  0  0  0  0  0  0  0
   -8.1640   -4.3542   -3.0567 C   0  0  0  0  0  0  0  0  0  0  0  0
   -8.8256   -4.6644   -1.9309 N   0  0  0  0  0  0  0  0  0  0  0  0
   -8.2971   -4.4103   -0.7575 C   0  0  0  0  0  0  0  0  0  0  0  0
   -7.1065   -3.8510   -0.6100 N   0  0  0  0  0  0  0  0  0  0  0  0
  -10.0576   -5.2548   -4.4558 C   0  0  0  0  0  0  0  0  0  0  0  0
  -11.1213   -4.1689   -4.6295 C   0  0  0  0  0  0  0  0  0  0  0  0
  -12.4265   -4.7968   -4.8747 N   0  3  0  0  0  0  0  0  0  0  0  0
  -12.3873   -5.5214   -6.1506 C   0  0  0  0  0  0  0  0  0  0  0  0
  -13.7177   -6.2442   -6.3721 C   0  0  0  0  0  0  0  0  0  0  0  0
  -14.8522   -5.2161   -6.4018 C   0  0  0  0  0  0  0  0  0  0  0  0
  -14.8369   -4.4157   -5.0963 C   0  0  0  0  0  0  0  0  0  0  0  0
  -13.4651   -3.7606   -4.9221 C   0  0  0  0  0  0  0  0  0  0  0  0
   -8.5091   -4.5302   -6.6701 O   0  0  0  0  0  0  0  0  0  0  0  0
   -8.3023   -5.8381   -7.2074 C   0  0  0  0  0  0  0  0  0  0  0  0
   -6.0140   -3.3466   -6.4967 N   0  0  0  0  0  0  0  0  0  0  0  0
   -4.6699   -3.2536   -6.4622 C   0  0  0  0  0  0  0  0  0  0  0  0
   -4.0667   -3.5557   -5.4541 O   0  0  0  0  0  0  0  0  0  0  0  0
   -3.9163   -2.7743   -7.6761 C   0  0  0  0  0  0  0  0  0  0  0  0
   -2.5450   -2.7631   -7.3993 F   0  0  0  0  0  0  0  0  0  0  0  0
   -4.1682   -3.6339   -8.7507 F   0  0  0  0  0  0  0  0  0  0  0  0
   -4.3362   -1.4810   -8.0050 F   0  0  0  0  0  0  0  0  0  0  0  0
    1.5370    1.5045   -0.5843 H   0  0  0  0  0  0  0  0  0  0  0  0
   -0.0532    1.5301   -1.3834 H   0  0  0  0  0  0  0  0  0  0  0  0
    0.0507    1.5662    0.3932 H   0  0  0  0  0  0  0  0  0  0  0  0
   -1.8200    1.0229   -0.3876 H   0  0  0  0  0  0  0  0  0  0  0  0
   -4.0372   -0.0352   -0.2375 H   0  0  0  0  0  0  0  0  0  0  0  0
   -2.2088   -3.8885   -0.2446 H   0  0  0  0  0  0  0  0  0  0  0  0
   -4.5331   -3.6173    0.3936 H   0  0  0  0  0  0  0  0  0  0  0  0
   -5.2961   -2.0091    0.3970 H   0  0  0  0  0  0  0  0  0  0  0  0
   -4.6072   -2.6617   -2.2631 H   0  0  0  0  0  0  0  0  0  0  0  0
   -5.2027   -2.9536   -4.0367 H   0  0  0  0  0  0  0  0  0  0  0  0
   -8.8570   -4.6726    0.1280 H   0  0  0  0  0  0  0  0  0  0  0  0
  -10.0652   -5.9132   -5.3245 H   0  0  0  0  0  0  0  0  0  0  0  0
  -10.2735   -5.8347   -3.5585 H   0  0  0  0  0  0  0  0  0  0  0  0
  -11.1736   -3.5635   -3.7246 H   0  0  0  0  0  0  0  0  0  0  0  0
  -10.8583   -3.5348   -5.4762 H   0  0  0  0  0  0  0  0  0  0  0  0
  -12.2180   -4.8155   -6.9637 H   0  0  0  0  0  0  0  0  0  0  0  0
  -11.5773   -6.2505   -6.1291 H   0  0  0  0  0  0  0  0  0  0  0  0
  -13.6872   -6.7801   -7.3208 H   0  0  0  0  0  0  0  0  0  0  0  0
  -13.8878   -6.9506   -5.5596 H   0  0  0  0  0  0  0  0  0  0  0  0
  -14.7098   -4.5404   -7.2453 H   0  0  0  0  0  0  0  0  0  0  0  0
  -15.8078   -5.7306   -6.5028 H   0  0  0  0  0  0  0  0  0  0  0  0
  -15.6065   -3.6446   -5.1331 H   0  0  0  0  0  0  0  0  0  0  0  0
  -15.0303   -5.0841   -4.2573 H   0  0  0  0  0  0  0  0  0  0  0  0
  -13.4508   -3.1898   -3.9936 H   0  0  0  0  0  0  0  0  0  0  0  0
  -13.2728   -3.0923   -5.7614 H   0  0  0  0  0  0  0  0  0  0  0  0
   -7.2357   -6.0627   -7.2163 H   0  0  0  0  0  0  0  0  0  0  0  0
   -8.8228   -6.5707   -6.5907 H   0  0  0  0  0  0  0  0  0  0  0  0
   -8.6905   -5.8783   -8.2251 H   0  0  0  0  0  0  0  0  0  0  0  0
   -6.4903   -3.1832   -7.3257 H   0  0  0  0  0  0  0  0  0  0  0  0
  -12.6326   -5.4442   -4.1287 H   0  0  0  0  0  0  0  0  0  0  0  0
  1  2  1  0  0  0  0
  1 39  1  0  0  0  0
  1 40  1  0  0  0  0
  1 41  1  0  0  0  0
  2  3  1  0  0  0  0
  3  8  2  0  0  0  0
  3  4  1  0  0  0  0
  4  5  2  0  0  0  0
  4 42  1  0  0  0  0
  5  6  1  0  0  0  0
  5 43  1  0  0  0  0
  6  7  2  0  0  0  0
  6 10  1  0  0  0  0
  7  8  1  0  0  0  0
  7 44  1  0  0  0  0
  8  9  1  0  0  0  0
 10 11  1  0  0  0  0
 10 45  1  0  0  0  0
 10 46  1  0  0  0  0
 11 12  1  0  0  0  0
 11 47  1  0  0  0  0
 12 21  2  0  0  0  0
 12 13  1  0  0  0  0
 13 18  2  0  0  0  0
 13 14  1  0  0  0  0
 14 15  2  0  0  0  0
 14 48  1  0  0  0  0
 15 16  1  0  0  0  0
 15 32  1  0  0  0  0
 16 17  2  0  0  0  0
 16 30  1  0  0  0  0
 17 18  1  0  0  0  0
 17 22  1  0  0  0  0
 18 19  1  0  0  0  0
 19 20  2  0  0  0  0
 20 21  1  0  0  0  0
 20 49  1  0  0  0  0
 22 23  1  0  0  0  0
 22 50  1  0  0  0  0
 22 51  1  0  0  0  0
 23 24  1  0  0  0  0
 23 52  1  0  0  0  0
 23 53  1  0  0  0  0
 24 29  1  0  0  0  0
 24 25  1  0  0  0  0
 24 68  1  0  0  0  0
 25 26  1  0  0  0  0
 25 54  1  0  0  0  0
 25 55  1  0  0  0  0
 26 27  1  0  0  0  0
 26 56  1  0  0  0  0
 26 57  1  0  0  0  0
 27 28  1  0  0  0  0
 27 58  1  0  0  0  0
 27 59  1  0  0  0  0
 28 29  1  0  0  0  0
 28 60  1  0  0  0  0
 28 61  1  0  0  0  0
 29 62  1  0  0  0  0
 29 63  1  0  0  0  0
 30 31  1  0  0  0  0
 31 64  1  0  0  0  0
 31 65  1  0  0  0  0
 31 66  1  0  0  0  0
 32 33  1  0  0  0  0
 32 67  1  0  0  0  0
 33 34  2  0  0  0  0
 33 35  1  0  0  0  0
 35 36  1  0  0  0  0
 35 37  1  0  0  0  0
 35 38  1  0  0  0  0
M  CHG  1  24   1
M  END
$$$$
CHEMBL23992
  -OEChem-07121202283D

 61 66  0     1  0  0  0  0  0999 V2000
   -0.0187    1.5258    0.0104 C   0  0  0  0  0  0  0  0  0  0  0  0
    0.0021   -0.0041    0.0020 C   0  0  0  0  0  0  0  0  0  0  0  0
    0.6878   -0.4765   -1.2033 N   0  0  0  0  0  0  0  0  0  0  0  0
   -0.0227   -0.6947   -2.3238 C   0  0  0  0  0  0  0  0  0  0  0  0
   -1.2251   -0.5008   -2.3313 O   0  0  0  0  0  0  0  0  0  0  0  0
    0.6272   -1.1489   -3.4906 C   0  0  0  0  0  0  0  0  0  0  0  0
    1.9973   -1.3638   -3.4663 C   0  0  0  0  0  0  0  0  0  0  0  0
    2.3542   -1.7848   -4.6835 N   0  0  0  0  0  0  0  0  0  0  0  0
    1.3012   -1.8454   -5.4580 C   0  0  0  0  0  0  0  0  0  0  0  0
    0.2085   -1.4628   -4.7695 N   0  0  0  0  0  0  0  0  0  0  0  0
   -1.1632   -1.3935   -5.2794 C   0  0  0  0  0  0  0  0  0  0  0  0
   -1.4163   -0.0242   -5.8556 C   0  0  0  0  0  0  0  0  0  0  0  0
   -1.9058    0.9850   -5.0472 C   0  0  0  0  0  0  0  0  0  0  0  0
   -2.1391    2.2410   -5.5732 C   0  0  0  0  0  0  0  0  0  0  0  0
   -1.8814    2.4892   -6.9135 C   0  0  0  0  0  0  0  0  0  0  0  0
   -1.3899    1.4750   -7.7225 C   0  0  0  0  0  0  0  0  0  0  0  0
   -1.1534    0.2222   -7.1905 C   0  0  0  0  0  0  0  0  0  0  0  0
   -2.1105    3.7238   -7.4334 O   0  0  0  0  0  0  0  0  0  0  0  0
    1.3098   -2.2774   -6.9017 C   0  0  0  0  0  0  0  0  0  0  0  0
    1.0944   -3.7668   -6.9817 C   0  0  0  0  0  0  0  0  0  0  0  0
    2.1782   -4.6244   -6.9535 C   0  0  0  0  0  0  0  0  0  0  0  0
    1.9806   -5.9906   -7.0269 C   0  0  0  0  0  0  0  0  0  0  0  0
    0.6992   -6.4992   -7.1280 C   0  0  0  0  0  0  0  0  0  0  0  0
   -0.3847   -5.6416   -7.1553 C   0  0  0  0  0  0  0  0  0  0  0  0
   -0.1873   -4.2756   -7.0776 C   0  0  0  0  0  0  0  0  0  0  0  0
    2.7027   -1.1295   -2.2948 N   0  0  0  0  0  0  0  0  0  0  0  0
    2.0585   -0.6850   -1.1688 C   0  0  0  0  0  0  0  0  0  0  0  0
    2.8606   -0.5119   -0.1545 N   0  3  0  0  0  0  0  0  0  0  0  0
    4.2414   -0.8380   -0.5207 C   0  0  1  0  0  0  0  0  0  0  0  0
    4.6528   -1.6300    0.1051 H   0  0  0  0  0  0  0  0  0  0  0  0
    4.1378   -1.2752   -2.0006 C   0  0  2  0  0  0  0  0  0  0  0  0
    4.4933   -2.2918   -2.1686 H   0  0  0  0  0  0  0  0  0  0  0  0
    4.9306   -0.2281   -2.8078 C   0  0  0  0  0  0  0  0  0  0  0  0
    4.9383    1.0283   -1.9027 C   0  0  0  0  0  0  0  0  0  0  0  0
    5.1015    0.4410   -0.4693 C   0  0  0  0  0  0  0  0  0  0  0  0
    1.0039    1.9031    0.0027 H   0  0  0  0  0  0  0  0  0  0  0  0
   -0.5459    1.8868   -0.8726 H   0  0  0  0  0  0  0  0  0  0  0  0
   -0.5289    1.8773    0.9072 H   0  0  0  0  0  0  0  0  0  0  0  0
    0.5293   -0.3651    0.8851 H   0  0  0  0  0  0  0  0  0  0  0  0
   -1.0205   -0.3814    0.0098 H   0  0  0  0  0  0  0  0  0  0  0  0
   -1.3005   -2.1457   -6.0562 H   0  0  0  0  0  0  0  0  0  0  0  0
   -1.8634   -1.5802   -4.4651 H   0  0  0  0  0  0  0  0  0  0  0  0
   -2.1062    0.7913   -4.0038 H   0  0  0  0  0  0  0  0  0  0  0  0
   -2.5221    3.0288   -4.9415 H   0  0  0  0  0  0  0  0  0  0  0  0
   -1.1886    1.6658   -8.7662 H   0  0  0  0  0  0  0  0  0  0  0  0
   -0.7666   -0.5665   -7.8188 H   0  0  0  0  0  0  0  0  0  0  0  0
   -1.3509    4.3199   -7.3808 H   0  0  0  0  0  0  0  0  0  0  0  0
    0.5114   -1.7655   -7.4389 H   0  0  0  0  0  0  0  0  0  0  0  0
    2.2702   -2.0246   -7.3509 H   0  0  0  0  0  0  0  0  0  0  0  0
    3.1793   -4.2271   -6.8745 H   0  0  0  0  0  0  0  0  0  0  0  0
    2.8274   -6.6606   -7.0056 H   0  0  0  0  0  0  0  0  0  0  0  0
    0.5448   -7.5665   -7.1861 H   0  0  0  0  0  0  0  0  0  0  0  0
   -1.3858   -6.0389   -7.2346 H   0  0  0  0  0  0  0  0  0  0  0  0
   -1.0343   -3.6058   -7.0952 H   0  0  0  0  0  0  0  0  0  0  0  0
    5.9482   -0.5753   -2.9863 H   0  0  0  0  0  0  0  0  0  0  0  0
    4.4287   -0.0147   -3.7515 H   0  0  0  0  0  0  0  0  0  0  0  0
    5.7819    1.6744   -2.1457 H   0  0  0  0  0  0  0  0  0  0  0  0
    3.9972    1.5716   -1.9879 H   0  0  0  0  0  0  0  0  0  0  0  0
    4.7245    1.1237    0.2921 H   0  0  0  0  0  0  0  0  0  0  0  0
    6.1448    0.1914   -0.2762 H   0  0  0  0  0  0  0  0  0  0  0  0
    2.5808   -0.2081    0.7232 H   0  0  0  0  0  0  0  0  0  0  0  0
  1  2  1  0  0  0  0
  1 36  1  0  0  0  0
  1 37  1  0  0  0  0
  1 38  1  0  0  0  0
  2  3  1  0  0  0  0
  2 39  1  0  0  0  0
  2 40  1  0  0  0  0
  3 27  1  0  0  0  0
  3  4  1  0  0  0  0
  4  5  2  0  0  0  0
  4  6  1  0  0  0  0
  6 10  1  0  0  0  0
  6  7  2  0  0  0  0
  7  8  1  0  0  0  0
  7 26  1  0  0  0  0
  8  9  2  0  0  0  0
  9 10  1  0  0  0  0
  9 19  1  0  0  0  0
 10 11  1  0  0  0  0
 11 12  1  0  0  0  0
 11 41  1  0  0  0  0
 11 42  1  0  0  0  0
 12 17  2  0  0  0  0
 12 13  1  0  0  0  0
 13 14  2  0  0  0  0
 13 43  1  0  0  0  0
 14 15  1  0  0  0  0
 14 44  1  0  0  0  0
 15 16  2  0  0  0  0
 15 18  1  0  0  0  0
 16 17  1  0  0  0  0
 16 45  1  0  0  0  0
 17 46  1  0  0  0  0
 18 47  1  0  0  0  0
 19 20  1  0  0  0  0
 19 48  1  0  0  0  0
 19 49  1  0  0  0  0
 20 25  2  0  0  0  0
 20 21  1  0  0  0  0
 21 22  2  0  0  0  0
 21 50  1  0  0  0  0
 22 23  1  0  0  0  0
 22 51  1  0  0  0  0
 23 24  2  0  0  0  0
 23 52  1  0  0  0  0
 24 25  1  0  0  0  0
 24 53  1  0  0  0  0
 25 54  1  0  0  0  0
 26 31  1  0  0  0  0
 26 27  1  0  0  0  0
 27 28  2  0  0  0  0
 28 29  1  0  0  0  0
 28 61  1  0  0  0  0
 29 30  1  0  0  0  0
 29 35  1  0  0  0  0
 29 31  1  0  0  0  0
 31 32  1  0  0  0  0
 31 33  1  0  0  0  0
 33 34  1  0  0  0  0
 33 55  1  0  0  0  0
 33 56  1  0  0  0  0
 34 35  1  0  0  0  0
 34 57  1  0  0  0  0
 34 58  1  0  0  0  0
 35 59  1  0  0  0  0
 35 60  1  0  0  0  0
M  CHG  1  28   1
M  END
$$$$
CHEMBL23992
  -OEChem-07121202283D

 62 67  0     1  0  0  0  0  0999 V2000
   -0.0187    1.5258    0.0104 C   0  0  0  0  0  0  0  0  0  0  0  0
    0.0021   -0.0041    0.0020 C   0  0  0  0  0  0  0  0  0  0  0  0
    0.6878   -0.4765   -1.2033 N   0  0  0  0  0  0  0  0  0  0  0  0
   -0.0227   -0.6947   -2.3238 C   0  0  0  0  0  0  0  0  0  0  0  0
   -1.2250   -0.5001   -2.3316 O   0  0  0  0  0  0  0  0  0  0  0  0
    0.6272   -1.1489   -3.4906 C   0  0  0  0  0  0  0  0  0  0  0  0
    1.9973   -1.3638   -3.4663 C   0  0  0  0  0  0  0  0  0  0  0  0
    2.3542   -1.7848   -4.6835 N   0  3  0  0  0  0  0  0  0  0  0  0
    1.3012   -1.8454   -5.4580 C   0  0  0  0  0  0  0  0  0  0  0  0
    0.2085   -1.4628   -4.7695 N   0  0  0  0  0  0  0  0  0  0  0  0
   -1.1632   -1.3935   -5.2794 C   0  0  0  0  0  0  0  0  0  0  0  0
   -1.4163   -0.0242   -5.8556 C   0  0  0  0  0  0  0  0  0  0  0  0
   -1.9058    0.9850   -5.0472 C   0  0  0  0  0  0  0  0  0  0  0  0
   -2.1391    2.2410   -5.5732 C   0  0  0  0  0  0  0  0  0  0  0  0
   -1.8814    2.4892   -6.9135 C   0  0  0  0  0  0  0  0  0  0  0  0
   -1.3899    1.4750   -7.7225 C   0  0  0  0  0  0  0  0  0  0  0  0
   -1.1534    0.2222   -7.1905 C   0  0  0  0  0  0  0  0  0  0  0  0
   -2.1105    3.7238   -7.4334 O   0  0  0  0  0  0  0  0  0  0  0  0
    1.3098   -2.2774   -6.9017 C   0  0  0  0  0  0  0  0  0  0  0  0
    1.2176   -3.7797   -6.9771 C   0  0  0  0  0  0  0  0  0  0  0  0
    2.3696   -4.5438   -6.9765 C   0  0  0  0  0  0  0  0  0  0  0  0
    2.2850   -5.9218   -7.0457 C   0  0  0  0  0  0  0  0  0  0  0  0
    1.0484   -6.5358   -7.1150 C   0  0  0  0  0  0  0  0  0  0  0  0
   -0.1036   -5.7717   -7.1147 C   0  0  0  0  0  0  0  0  0  0  0  0
   -0.0192   -4.3939   -7.0412 C   0  0  0  0  0  0  0  0  0  0  0  0
    2.7027   -1.1295   -2.2948 N   0  0  0  0  0  0  0  0  0  0  0  0
    2.0585   -0.6850   -1.1688 C   0  0  0  0  0  0  0  0  0  0  0  0
    2.8606   -0.5119   -0.1545 N   0  3  0  0  0  0  0  0  0  0  0  0
    4.2414   -0.8380   -0.5207 C   0  0  1  0  0  0  0  0  0  0  0  0
    4.6528   -1.6300    0.1051 H   0  0  0  0  0  0  0  0  0  0  0  0
    4.1378   -1.2752   -2.0006 C   0  0  2  0  0  0  0  0  0  0  0  0
    4.4933   -2.2918   -2.1686 H   0  0  0  0  0  0  0  0  0  0  0  0
    4.9306   -0.2281   -2.8078 C   0  0  0  0  0  0  0  0  0  0  0  0
    4.9383    1.0283   -1.9027 C   0  0  0  0  0  0  0  0  0  0  0  0
    5.1015    0.4410   -0.4693 C   0  0  0  0  0  0  0  0  0  0  0  0
    1.0039    1.9031    0.0027 H   0  0  0  0  0  0  0  0  0  0  0  0
   -0.5459    1.8868   -0.8726 H   0  0  0  0  0  0  0  0  0  0  0  0
   -0.5289    1.8773    0.9072 H   0  0  0  0  0  0  0  0  0  0  0  0
    0.5293   -0.3651    0.8851 H   0  0  0  0  0  0  0  0  0  0  0  0
   -1.0205   -0.3814    0.0098 H   0  0  0  0  0  0  0  0  0  0  0  0
   -1.3005   -2.1457   -6.0562 H   0  0  0  0  0  0  0  0  0  0  0  0
   -1.8634   -1.5802   -4.4651 H   0  0  0  0  0  0  0  0  0  0  0  0
   -2.1062    0.7913   -4.0038 H   0  0  0  0  0  0  0  0  0  0  0  0
   -2.5221    3.0288   -4.9415 H   0  0  0  0  0  0  0  0  0  0  0  0
   -1.1886    1.6658   -8.7662 H   0  0  0  0  0  0  0  0  0  0  0  0
   -0.7666   -0.5665   -7.8188 H   0  0  0  0  0  0  0  0  0  0  0  0
   -1.3509    4.3199   -7.3808 H   0  0  0  0  0  0  0  0  0  0  0  0
    0.4583   -1.8347   -7.4185 H   0  0  0  0  0  0  0  0  0  0  0  0
    2.2343   -1.9460   -7.3746 H   0  0  0  0  0  0  0  0  0  0  0  0
    3.3357   -4.0641   -6.9223 H   0  0  0  0  0  0  0  0  0  0  0  0
    3.1850   -6.5188   -7.0459 H   0  0  0  0  0  0  0  0  0  0  0  0
    0.9823   -7.6124   -7.1697 H   0  0  0  0  0  0  0  0  0  0  0  0
   -1.0697   -6.2514   -7.1692 H   0  0  0  0  0  0  0  0  0  0  0  0
   -0.9193   -3.7971   -7.0372 H   0  0  0  0  0  0  0  0  0  0  0  0
    5.9482   -0.5753   -2.9863 H   0  0  0  0  0  0  0  0  0  0  0  0
    4.4287   -0.0147   -3.7515 H   0  0  0  0  0  0  0  0  0  0  0  0
    5.7819    1.6744   -2.1457 H   0  0  0  0  0  0  0  0  0  0  0  0
    3.9972    1.5716   -1.9879 H   0  0  0  0  0  0  0  0  0  0  0  0
    4.7245    1.1237    0.2921 H   0  0  0  0  0  0  0  0  0  0  0  0
    6.1448    0.1914   -0.2762 H   0  0  0  0  0  0  0  0  0  0  0  0
    2.5808   -0.2081    0.7232 H   0  0  0  0  0  0  0  0  0  0  0  0
    3.2582   -2.0114   -4.9525 H   0  0  0  0  0  0  0  0  0  0  0  0
  1  2  1  0  0  0  0
  1 36  1  0  0  0  0
  1 37  1  0  0  0  0
  1 38  1  0  0  0  0
  2  3  1  0  0  0  0
  2 39  1  0  0  0  0
  2 40  1  0  0  0  0
  3 27  1  0  0  0  0
  3  4  1  0  0  0  0
  4  5  2  0  0  0  0
  4  6  1  0  0  0  0
  6 10  1  0  0  0  0
  6  7  2  0  0  0  0
  7  8  1  0  0  0  0
  7 26  1  0  0  0  0
  8  9  2  0  0  0  0
  8 62  1  0  0  0  0
  9 10  1  0  0  0  0
  9 19  1  0  0  0  0
 10 11  1  0  0  0  0
 11 12  1  0  0  0  0
 11 41  1  0  0  0  0
 11 42  1  0  0  0  0
 12 17  2  0  0  0  0
 12 13  1  0  0  0  0
 13 14  2  0  0  0  0
 13 43  1  0  0  0  0
 14 15  1  0  0  0  0
 14 44  1  0  0  0  0
 15 16  2  0  0  0  0
 15 18  1  0  0  0  0
 16 17  1  0  0  0  0
 16 45  1  0  0  0  0
 17 46  1  0  0  0  0
 18 47  1  0  0  0  0
 19 20  1  0  0  0  0
 19 48  1  0  0  0  0
 19 49  1  0  0  0  0
 20 25  2  0  0  0  0
 20 21  1  0  0  0  0
 21 22  2  0  0  0  0
 21 50  1  0  0  0  0
 22 23  1  0  0  0  0
 22 51  1  0  0  0  0
 23 24  2  0  0  0  0
 23 52  1  0  0  0  0
 24 25  1  0  0  0  0
 24 53  1  0  0  0  0
 25 54  1  0  0  0  0
 26 31  1  0  0  0  0
 26 27  1  0  0  0  0
 27 28  2  0  0  0  0
 28 29  1  0  0  0  0
 28 61  1  0  0  0  0
 29 30  1  0  0  0  0
 29 35  1  0  0  0  0
 29 31  1  0  0  0  0
 31 32  1  0  0  0  0
 31 33  1  0  0  0  0
 33 34  1  0  0  0  0
 33 55  1  0  0  0  0
 33 56  1  0  0  0  0
 34 35  1  0  0  0  0
 34 57  1  0  0  0  0
 34 58  1  0  0  0  0
 35 59  1  0  0  0  0
 35 60  1  0  0  0  0
M  CHG  2   8   1  28   1
M  END
$$$$
CHEMBL169843
  -OEChem-07121202283D

 63 66  0     0  0  0  0  0  0999 V2000
   -0.0187    1.5258    0.0104 C   0  0  0  0  0  0  0  0  0  0  0  0
    0.0021   -0.0041    0.0020 C   0  0  0  0  0  0  0  0  0  0  0  0
   -1.4333   -0.5336    0.0129 C   0  0  0  0  0  0  0  0  0  0  0  0
   -1.4134   -1.9985    0.0048 N   0  0  0  0  0  0  0  0  0  0  0  0
   -1.5028   -2.8002   -1.0943 C   0  0  0  0  0  0  0  0  0  0  0  0
   -1.4518   -4.0502   -0.7344 N   0  0  0  0  0  0  0  0  0  0  0  0
   -1.3272   -4.1248    0.6114 C   0  0  0  0  0  0  0  0  0  0  0  0
   -1.2958   -2.8129    1.0991 C   0  0  0  0  0  0  0  0  0  0  0  0
   -1.1721   -2.5963    2.4125 N   0  0  0  0  0  0  0  0  0  0  0  0
   -1.0758   -3.5958    3.2610 C   0  0  0  0  0  0  0  0  0  0  0  0
   -1.0967   -4.8985    2.8473 N   0  0  0  0  0  0  0  0  0  0  0  0
   -1.0236   -5.6134    3.4988 H   0  0  0  0  0  0  0  0  0  0  0  0
   -1.2270   -5.1945    1.5349 C   0  0  0  0  0  0  0  0  0  0  0  0
   -1.2453   -6.3525    1.1544 O   0  0  0  0  0  0  0  0  0  0  0  0
   -0.9410   -3.3032    4.7009 C   0  0  0  0  0  0  0  0  0  0  0  0
   -0.8313   -4.3471    5.6225 C   0  0  0  0  0  0  0  0  0  0  0  0
   -0.7051   -4.0670    6.9662 C   0  0  0  0  0  0  0  0  0  0  0  0
   -0.6866   -2.7543    7.4075 C   0  0  0  0  0  0  0  0  0  0  0  0
   -0.7943   -1.7129    6.5066 C   0  0  0  0  0  0  0  0  0  0  0  0
   -0.9165   -1.9764    5.1510 C   0  0  0  0  0  0  0  0  0  0  0  0
   -1.0168   -0.9539    4.2642 O   0  0  0  0  0  0  0  0  0  0  0  0
   -0.9843    0.3720    4.7964 C   0  0  0  0  0  0  0  0  0  0  0  0
   -1.1090    1.3829    3.6548 C   0  0  0  0  0  0  0  0  0  0  0  0
   -1.0743    2.8025    4.2245 C   0  0  0  0  0  0  0  0  0  0  0  0
   -0.5673   -5.3849    8.1276 S   0  0  0  0  0  0  0  0  0  0  0  0
   -1.0081   -4.8724    9.3775 O   0  0  0  0  0  0  0  0  0  0  0  0
   -1.1592   -6.5251    7.5203 O   0  0  0  0  0  0  0  0  0  0  0  0
    1.0452   -5.7221    8.2965 N   0  0  0  0  0  0  0  0  0  0  0  0
    1.7051   -6.7089    7.4283 C   0  0  0  0  0  0  0  0  0  0  0  0
    2.9613   -6.0675    6.8293 C   0  0  0  0  0  0  0  0  0  0  0  0
    3.7988   -5.5345    7.9121 N   0  0  0  0  0  0  0  0  0  0  0  0
    3.1058   -4.4668    8.6455 C   0  0  0  0  0  0  0  0  0  0  0  0
    1.8568   -5.0382    9.3148 C   0  0  0  0  0  0  0  0  0  0  0  0
    5.0913   -5.0650    7.3955 C   0  0  0  0  0  0  0  0  0  0  0  0
    1.0039    1.9031    0.0027 H   0  0  0  0  0  0  0  0  0  0  0  0
   -0.5459    1.8868   -0.8726 H   0  0  0  0  0  0  0  0  0  0  0  0
   -0.5289    1.8773    0.9072 H   0  0  0  0  0  0  0  0  0  0  0  0
    0.5123   -0.3556   -0.8948 H   0  0  0  0  0  0  0  0  0  0  0  0
    0.5293   -0.3651    0.8851 H   0  0  0  0  0  0  0  0  0  0  0  0
   -1.9435   -0.1821    0.9097 H   0  0  0  0  0  0  0  0  0  0  0  0
   -1.9605   -0.1726   -0.8702 H   0  0  0  0  0  0  0  0  0  0  0  0
   -1.6015   -2.4505   -2.1113 H   0  0  0  0  0  0  0  0  0  0  0  0
   -0.8456   -5.3722    5.2827 H   0  0  0  0  0  0  0  0  0  0  0  0
   -0.5878   -2.5438    8.4621 H   0  0  0  0  0  0  0  0  0  0  0  0
   -0.7795   -0.6918    6.8583 H   0  0  0  0  0  0  0  0  0  0  0  0
   -1.8134    0.5048    5.4915 H   0  0  0  0  0  0  0  0  0  0  0  0
   -0.0418    0.5301    5.3205 H   0  0  0  0  0  0  0  0  0  0  0  0
   -0.2800    1.2501    2.9596 H   0  0  0  0  0  0  0  0  0  0  0  0
   -2.0515    1.2247    3.1306 H   0  0  0  0  0  0  0  0  0  0  0  0
   -1.9033    2.9353    4.9197 H   0  0  0  0  0  0  0  0  0  0  0  0
   -0.1318    2.9606    4.7487 H   0  0  0  0  0  0  0  0  0  0  0  0
   -1.1631    3.5227    3.4112 H   0  0  0  0  0  0  0  0  0  0  0  0
    1.9849   -7.5838    8.0151 H   0  0  0  0  0  0  0  0  0  0  0  0
    1.0269   -7.0034    6.6273 H   0  0  0  0  0  0  0  0  0  0  0  0
    3.5219   -6.8175    6.2714 H   0  0  0  0  0  0  0  0  0  0  0  0
    2.6722   -5.2569    6.1604 H   0  0  0  0  0  0  0  0  0  0  0  0
    3.7712   -4.0560    9.4047 H   0  0  0  0  0  0  0  0  0  0  0  0
    2.8147   -3.6785    7.9513 H   0  0  0  0  0  0  0  0  0  0  0  0
    1.2790   -4.2285    9.7605 H   0  0  0  0  0  0  0  0  0  0  0  0
    2.1515   -5.7494   10.0864 H   0  0  0  0  0  0  0  0  0  0  0  0
    4.9245   -4.2762    6.6620 H   0  0  0  0  0  0  0  0  0  0  0  0
    5.6915   -4.6755    8.2178 H   0  0  0  0  0  0  0  0  0  0  0  0
    5.6170   -5.8949    6.9233 H   0  0  0  0  0  0  0  0  0  0  0  0
  1  2  1  0  0  0  0
  1 35  1  0  0  0  0
  1 36  1  0  0  0  0
  1 37  1  0  0  0  0
  2  3  1  0  0  0  0
  2 38  1  0  0  0  0
  2 39  1  0  0  0  0
  3  4  1  0  0  0  0
  3 40  1  0  0  0  0
  3 41  1  0  0  0  0
  4  8  1  0  0  0  0
  4  5  1  0  0  0  0
  5  6  2  0  0  0  0
  5 42  1  0  0  0  0
  6  7  1  0  0  0  0
  7 13  1  0  0  0  0
  7  8  2  0  0  0  0
  8  9  1  0  0  0  0
  9 10  2  0  0  0  0
 10 11  1  0  0  0  0
 10 15  1  0  0  0  0
 11 12  1  0  0  0  0
 11 13  1  0  0  0  0
 13 14  2  0  0  0  0
 15 20  2  0  0  0  0
 15 16  1  0  0  0  0
 16 17  2  0  0  0  0
 16 43  1  0  0  0  0
 17 18  1  0  0  0  0
 17 25  1  0  0  0  0
 18 19  2  0  0  0  0
 18 44  1  0  0  0  0
 19 20  1  0  0  0  0
 19 45  1  0  0  0  0
 20 21  1  0  0  0  0
 21 22  1  0  0  0  0
 22 23  1  0  0  0  0
 22 46  1  0  0  0  0
 22 47  1  0  0  0  0
 23 24  1  0  0  0  0
 23 48  1  0  0  0  0
 23 49  1  0  0  0  0
 24 50  1  0  0  0  0
 24 51  1  0  0  0  0
 24 52  1  0  0  0  0
 25 26  2  0  0  0  0
 25 27  2  0  0  0  0
 25 28  1  0  0  0  0
 28 33  1  0  0  0  0
 28 29  1  0  0  0  0
 29 30  1  0  0  0  0
 29 53  1  0  0  0  0
 29 54  1  0  0  0  0
 30 31  1  0  0  0  0
 30 55  1  0  0  0  0
 30 56  1  0  0  0  0
 31 32  1  0  0  0  0
 31 34  1  0  0  0  0
 32 33  1  0  0  0  0
 32 57  1  0  0  0  0
 32 58  1  0  0  0  0
 33 59  1  0  0  0  0
 33 60  1  0  0  0  0
 34 61  1  0  0  0  0
 34 62  1  0  0  0  0
 34 63  1  0  0  0  0
M  END
$$$$
CHEMBL169843
  -OEChem-07121202283D

 64 67  0     0  0  0  0  0  0999 V2000
   -0.0187    1.5258    0.0104 C   0  0  0  0  0  0  0  0  0  0  0  0
    0.0021   -0.0041    0.0020 C   0  0  0  0  0  0  0  0  0  0  0  0
    0.7182   -0.4975   -1.2568 C   0  0  0  0  0  0  0  0  0  0  0  0
    0.7381   -1.9623   -1.2648 N   0  0  0  0  0  0  0  0  0  0  0  0
    1.7471   -2.7577   -0.8087 C   0  0  0  0  0  0  0  0  0  0  0  0
    1.4294   -4.0098   -0.9695 N   0  0  0  0  0  0  0  0  0  0  0  0
    0.2028   -4.0922   -1.5359 C   0  0  0  0  0  0  0  0  0  0  0  0
   -0.2558   -2.7832   -1.7263 C   0  0  0  0  0  0  0  0  0  0  0  0
   -1.4584   -2.5744   -2.2715 N   0  0  0  0  0  0  0  0  0  0  0  0
   -2.2257   -3.5790   -2.6324 C   0  0  0  0  0  0  0  0  0  0  0  0
   -1.8367   -4.8793   -2.4697 N   0  0  0  0  0  0  0  0  0  0  0  0
   -2.4263   -5.5981   -2.7464 H   0  0  0  0  0  0  0  0  0  0  0  0
   -0.6304   -5.1674   -1.9323 C   0  0  0  0  0  0  0  0  0  0  0  0
   -0.2737   -6.3231   -1.7811 O   0  0  0  0  0  0  0  0  0  0  0  0
   -3.5447   -3.2949   -3.2297 C   0  0  0  0  0  0  0  0  0  0  0  0
   -4.3814   -4.3444   -3.6163 C   0  0  0  0  0  0  0  0  0  0  0  0
   -5.6125   -4.0723   -4.1732 C   0  0  0  0  0  0  0  0  0  0  0  0
   -6.0244   -2.7620   -4.3516 C   0  0  0  0  0  0  0  0  0  0  0  0
   -5.2066   -1.7151   -3.9737 C   0  0  0  0  0  0  0  0  0  0  0  0
   -3.9674   -1.9707   -3.4070 C   0  0  0  0  0  0  0  0  0  0  0  0
   -3.1652   -0.9429   -3.0300 O   0  0  0  0  0  0  0  0  0  0  0  0
   -3.6630    0.3798   -3.2415 C   0  0  0  0  0  0  0  0  0  0  0  0
   -2.6277    1.3976   -2.7585 C   0  0  0  0  0  0  0  0  0  0  0  0
   -3.1606    2.8138   -2.9849 C   0  0  0  0  0  0  0  0  0  0  0  0
   -6.6667   -5.3973   -4.6610 S   0  0  0  0  0  0  0  0  0  0  0  0
   -7.5369   -4.8782   -5.6573 O   0  0  0  0  0  0  0  0  0  0  0  0
   -5.8272   -6.5201   -4.8926 O   0  0  0  0  0  0  0  0  0  0  0  0
   -7.6136   -5.7754   -3.3560 N   0  0  0  0  0  0  0  0  0  0  0  0
   -7.1772   -6.7754   -2.3693 C   0  0  0  0  0  0  0  0  0  0  0  0
   -7.3151   -6.1685   -0.9691 C   0  0  0  0  0  0  0  0  0  0  0  0
   -8.6894   -5.6882   -0.7781 N   0  3  0  0  0  0  0  0  0  0  0  0
   -8.9705   -4.5917   -1.7133 C   0  0  0  0  0  0  0  0  0  0  0  0
   -8.9121   -5.1164   -3.1473 C   0  0  0  0  0  0  0  0  0  0  0  0
   -8.8509   -5.2071    0.6005 C   0  0  0  0  0  0  0  0  0  0  0  0
    1.0039    1.9031    0.0027 H   0  0  0  0  0  0  0  0  0  0  0  0
   -0.5459    1.8868   -0.8726 H   0  0  0  0  0  0  0  0  0  0  0  0
   -0.5289    1.8773    0.9072 H   0  0  0  0  0  0  0  0  0  0  0  0
    0.5293   -0.3651    0.8851 H   0  0  0  0  0  0  0  0  0  0  0  0
   -1.0205   -0.3814    0.0098 H   0  0  0  0  0  0  0  0  0  0  0  0
    0.1910   -0.1364   -2.1398 H   0  0  0  0  0  0  0  0  0  0  0  0
    1.7408   -0.1202   -1.2645 H   0  0  0  0  0  0  0  0  0  0  0  0
    2.6718   -2.4021   -0.3787 H   0  0  0  0  0  0  0  0  0  0  0  0
   -4.0640   -5.3676   -3.4793 H   0  0  0  0  0  0  0  0  0  0  0  0
   -6.9904   -2.5577   -4.7891 H   0  0  0  0  0  0  0  0  0  0  0  0
   -5.5345   -0.6960   -4.1162 H   0  0  0  0  0  0  0  0  0  0  0  0
   -3.8528    0.5310   -4.3041 H   0  0  0  0  0  0  0  0  0  0  0  0
   -4.5903    0.5125   -2.6843 H   0  0  0  0  0  0  0  0  0  0  0  0
   -2.4379    1.2464   -1.6958 H   0  0  0  0  0  0  0  0  0  0  0  0
   -1.7004    1.2650   -3.3157 H   0  0  0  0  0  0  0  0  0  0  0  0
   -4.0880    2.9465   -2.4277 H   0  0  0  0  0  0  0  0  0  0  0  0
   -2.4231    3.5389   -2.6408 H   0  0  0  0  0  0  0  0  0  0  0  0
   -3.3504    2.9650   -4.0475 H   0  0  0  0  0  0  0  0  0  0  0  0
   -7.8037   -7.6640   -2.4467 H   0  0  0  0  0  0  0  0  0  0  0  0
   -6.1360   -7.0407   -2.5526 H   0  0  0  0  0  0  0  0  0  0  0  0
   -7.0878   -6.9272   -0.2202 H   0  0  0  0  0  0  0  0  0  0  0  0
   -6.6208   -5.3348   -0.8644 H   0  0  0  0  0  0  0  0  0  0  0  0
   -9.9631   -4.1884   -1.5128 H   0  0  0  0  0  0  0  0  0  0  0  0
   -8.2262   -3.8057   -1.5861 H   0  0  0  0  0  0  0  0  0  0  0  0
   -9.0174   -4.2854   -3.8448 H   0  0  0  0  0  0  0  0  0  0  0  0
   -9.7168   -5.8346   -3.3046 H   0  0  0  0  0  0  0  0  0  0  0  0
   -8.1514   -4.3918    0.7851 H   0  0  0  0  0  0  0  0  0  0  0  0
   -9.8708   -4.8503    0.7437 H   0  0  0  0  0  0  0  0  0  0  0  0
   -8.6503   -6.0223    1.2957 H   0  0  0  0  0  0  0  0  0  0  0  0
   -9.3352   -6.4452   -0.9453 H   0  0  0  0  0  0  0  0  0  0  0  0
  1  2  1  0  0  0  0
  1 35  1  0  0  0  0
  1 36  1  0  0  0  0
  1 37  1  0  0  0  0
  2  3  1  0  0  0  0
  2 38  1  0  0  0  0
  2 39  1  0  0  0  0
  3  4  1  0  0  0  0
  3 40  1  0  0  0  0
  3 41  1  0  0  0  0
  4  8  1  0  0  0  0
  4  5  1  0  0  0  0
  5  6  2  0  0  0  0
  5 42  1  0  0  0  0
  6  7  1  0  0  0  0
  7 13  1  0  0  0  0
  7  8  2  0  0  0  0
  8  9  1  0  0  0  0
  9 10  2  0  0  0  0
 10 11  1  0  0  0  0
 10 15  1  0  0  0  0
 11 12  1  0  0  0  0
 11 13  1  0  0  0  0
 13 14  2  0  0  0  0
 15 20  2  0  0  0  0
 15 16  1  0  0  0  0
 16 17  2  0  0  0  0
 16 43  1  0  0  0  0
 17 18  1  0  0  0  0
 17 25  1  0  0  0  0
 18 19  2  0  0  0  0
 18 44  1  0  0  0  0
 19 20  1  0  0  0  0
 19 45  1  0  0  0  0
 20 21  1  0  0  0  0
 21 22  1  0  0  0  0
 22 23  1  0  0  0  0
 22 46  1  0  0  0  0
 22 47  1  0  0  0  0
 23 24  1  0  0  0  0
 23 48  1  0  0  0  0
 23 49  1  0  0  0  0
 24 50  1  0  0  0  0
 24 51  1  0  0  0  0
 24 52  1  0  0  0  0
 25 26  2  0  0  0  0
 25 27  2  0  0  0  0
 25 28  1  0  0  0  0
 28 33  1  0  0  0  0
 28 29  1  0  0  0  0
 29 30  1  0  0  0  0
 29 53  1  0  0  0  0
 29 54  1  0  0  0  0
 30 31  1  0  0  0  0
 30 55  1  0  0  0  0
 30 56  1  0  0  0  0
 31 32  1  0  0  0  0
 31 34  1  0  0  0  0
 31 64  1  0  0  0  0
 32 33  1  0  0  0  0
 32 57  1  0  0  0  0
 32 58  1  0  0  0  0
 33 59  1  0  0  0  0
 33 60  1  0  0  0  0
 34 61  1  0  0  0  0
 34 62  1  0  0  0  0
 34 63  1  0  0  0  0
M  CHG  1  31   1
M  END
$$$$
CHEMBL24752
  -OEChem-07121202283D

 65 68  0     0  0  0  0  0  0999 V2000
   -0.0060    1.2924   -0.0186 C   0  0  0  0  0  0  0  0  0  0  0  0
    0.0245   -0.1358   -0.0541 O   0  0  0  0  0  0  0  0  0  0  0  0
    0.6332   -0.7140   -1.1240 C   0  0  0  0  0  0  0  0  0  0  0  0
    1.1919    0.0757   -2.1113 C   0  0  0  0  0  0  0  0  0  0  0  0
    1.8164   -0.5208   -3.2088 C   0  0  0  0  0  0  0  0  0  0  0  0
    1.8739   -1.9130   -3.3043 C   0  0  0  0  0  0  0  0  0  0  0  0
    1.3145   -2.6957   -2.3157 C   0  0  0  0  0  0  0  0  0  0  0  0
    0.6987   -2.1022   -1.2218 C   0  0  0  0  0  0  0  0  0  0  0  0
    0.1538   -2.8772   -0.2474 O   0  0  0  0  0  0  0  0  0  0  0  0
   -1.2149   -3.2552   -0.4086 C   0  0  0  0  0  0  0  0  0  0  0  0
    1.3927   -4.5805   -2.4470 Br  0  0  0  0  0  0  0  0  0  0  0  0
    2.4147    0.3192   -4.2672 C   0  0  0  0  0  0  0  0  0  0  0  0
    1.8802    0.3001   -5.5792 C   0  0  0  0  0  0  0  0  0  0  0  0
    0.7800   -0.5144   -5.8866 C   0  0  0  0  0  0  0  0  0  0  0  0
    0.2749   -0.5235   -7.1526 C   0  0  0  0  0  0  0  0  0  0  0  0
    0.8358    0.2667   -8.1515 C   0  0  0  0  0  0  0  0  0  0  0  0
    1.9053    1.0705   -7.8895 C   0  0  0  0  0  0  0  0  0  0  0  0
    2.4529    1.1051   -6.5932 C   0  0  0  0  0  0  0  0  0  0  0  0
    3.5558    1.9302   -6.3090 C   0  0  0  0  0  0  0  0  0  0  0  0
    4.0909    1.9622   -5.0367 C   0  0  0  0  0  0  0  0  0  0  0  0
    3.5057    1.1401   -3.9785 C   0  0  0  0  0  0  0  0  0  0  0  0
    4.0673    1.1744   -2.6180 C   0  0  0  0  0  0  0  0  0  0  0  0
    4.9553    0.4048   -2.3076 O   0  0  0  0  0  0  0  0  0  0  0  0
    3.5967    2.0593   -1.7166 O   0  0  0  0  0  0  0  0  0  0  0  0
    4.1876    2.0368   -0.4157 C   0  0  0  0  0  0  0  0  0  0  0  0
    5.2495    2.8307   -4.7433 C   0  0  0  0  0  0  0  0  0  0  0  0
    6.2486    2.3602   -4.2351 O   0  0  0  0  0  0  0  0  0  0  0  0
    5.1988    4.1446   -5.0391 N   0  0  0  0  0  0  0  0  0  0  0  0
    3.9566    4.7605   -5.5298 C   0  0  0  0  0  0  0  0  0  0  0  0
    3.6578    5.9989   -4.6780 C   0  0  0  0  0  0  0  0  0  0  0  0
    4.8310    6.8829   -4.6765 N   0  0  0  0  0  0  0  0  0  0  0  0
    5.9899    6.2294   -4.0537 C   0  0  0  0  0  0  0  0  0  0  0  0
    6.3825    5.0018   -4.8740 C   0  0  0  0  0  0  0  0  0  0  0  0
    4.5277    8.1590   -4.0150 C   0  0  0  0  0  0  0  0  0  0  0  0
    5.6778    9.1406   -4.2488 C   0  0  0  0  0  0  0  0  0  0  0  0
    5.7657    9.4483   -5.6415 O   0  0  0  0  0  0  0  0  0  0  0  0
    2.5895    2.0481   -9.1504 Cl  0  0  0  0  0  0  0  0  0  0  0  0
    1.0137    1.6777   -0.0190 H   0  0  0  0  0  0  0  0  0  0  0  0
   -0.5360    1.6664   -0.8946 H   0  0  0  0  0  0  0  0  0  0  0  0
   -0.5188    1.6226    0.8847 H   0  0  0  0  0  0  0  0  0  0  0  0
    1.1453    1.1520   -2.0344 H   0  0  0  0  0  0  0  0  0  0  0  0
    2.3560   -2.3768   -4.1523 H   0  0  0  0  0  0  0  0  0  0  0  0
   -1.3287   -3.8228   -1.3321 H   0  0  0  0  0  0  0  0  0  0  0  0
   -1.5238   -3.8705    0.4365 H   0  0  0  0  0  0  0  0  0  0  0  0
   -1.8361   -2.3607   -0.4530 H   0  0  0  0  0  0  0  0  0  0  0  0
    0.3345   -1.1332   -5.1218 H   0  0  0  0  0  0  0  0  0  0  0  0
   -0.5719   -1.1527   -7.3836 H   0  0  0  0  0  0  0  0  0  0  0  0
    0.4186    0.2425   -9.1474 H   0  0  0  0  0  0  0  0  0  0  0  0
    3.9859    2.5408   -7.0890 H   0  0  0  0  0  0  0  0  0  0  0  0
    4.0401    1.0546    0.0334 H   0  0  0  0  0  0  0  0  0  0  0  0
    5.2550    2.2421   -0.4980 H   0  0  0  0  0  0  0  0  0  0  0  0
    3.7187    2.7965    0.2096 H   0  0  0  0  0  0  0  0  0  0  0  0
    4.0804    5.0543   -6.5721 H   0  0  0  0  0  0  0  0  0  0  0  0
    3.1356    4.0490   -5.4420 H   0  0  0  0  0  0  0  0  0  0  0  0
    2.8026    6.5300   -5.0958 H   0  0  0  0  0  0  0  0  0  0  0  0
    3.4323    5.6920   -3.6567 H   0  0  0  0  0  0  0  0  0  0  0  0
    6.8260    6.9279   -4.0187 H   0  0  0  0  0  0  0  0  0  0  0  0
    5.7319    5.9194   -3.0410 H   0  0  0  0  0  0  0  0  0  0  0  0
    7.1647    4.4497   -4.3530 H   0  0  0  0  0  0  0  0  0  0  0  0
    6.7440    5.3192   -5.8521 H   0  0  0  0  0  0  0  0  0  0  0  0
    3.6075    8.5725   -4.4277 H   0  0  0  0  0  0  0  0  0  0  0  0
    4.4036    7.9930   -2.9449 H   0  0  0  0  0  0  0  0  0  0  0  0
    5.4947   10.0556   -3.6854 H   0  0  0  0  0  0  0  0  0  0  0  0
    6.6131    8.6903   -3.9164 H   0  0  0  0  0  0  0  0  0  0  0  0
    6.4750   10.0669   -5.8636 H   0  0  0  0  0  0  0  0  0  0  0  0
  1  2  1  0  0  0  0
  1 38  1  0  0  0  0
  1 39  1  0  0  0  0
  1 40  1  0  0  0  0
  2  3  1  0  0  0  0
  3  8  2  0  0  0  0
  3  4  1  0  0  0  0
  4  5  2  0  0  0  0
  4 41  1  0  0  0  0
  5  6  1  0  0  0  0
  5 12  1  0  0  0  0
  6  7  2  0  0  0  0
  6 42  1  0  0  0  0
  7  8  1  0  0  0  0
  7 11  1  0  0  0  0
  8  9  1  0  0  0  0
  9 10  1  0  0  0  0
 10 43  1  0  0  0  0
 10 44  1  0  0  0  0
 10 45  1  0  0  0  0
 12 21  2  0  0  0  0
 12 13  1  0  0  0  0
 13 18  2  0  0  0  0
 13 14  1  0  0  0  0
 14 15  2  0  0  0  0
 14 46  1  0  0  0  0
 15 16  1  0  0  0  0
 15 47  1  0  0  0  0
 16 17  2  0  0  0  0
 16 48  1  0  0  0  0
 17 18  1  0  0  0  0
 17 37  1  0  0  0  0
 18 19  1  0  0  0  0
 19 20  2  0  0  0  0
 19 49  1  0  0  0  0
 20 21  1  0  0  0  0
 20 26  1  0  0  0  0
 21 22  1  0  0  0  0
 22 23  2  0  0  0  0
 22 24  1  0  0  0  0
 24 25  1  0  0  0  0
 25 50  1  0  0  0  0
 25 51  1  0  0  0  0
 25 52  1  0  0  0  0
 26 27  2  0  0  0  0
 26 28  1  0  0  0  0
 28 33  1  0  0  0  0
 28 29  1  0  0  0  0
 29 30  1  0  0  0  0
 29 53  1  0  0  0  0
 29 54  1  0  0  0  0
 30 31  1  0  0  0  0
 30 55  1  0  0  0  0
 30 56  1  0  0  0  0
 31 32  1  0  0  0  0
 31 34  1  0  0  0  0
 32 33  1  0  0  0  0
 32 57  1  0  0  0  0
 32 58  1  0  0  0  0
 33 59  1  0  0  0  0
 33 60  1  0  0  0  0
 34 35  1  0  0  0  0
 34 61  1  0  0  0  0
 34 62  1  0  0  0  0
 35 36  1  0  0  0  0
 35 63  1  0  0  0  0
 35 64  1  0  0  0  0
 36 65  1  0  0  0  0
M  END
$$$$
CHEMBL426650
  -OEChem-07121202283D

 63 67  0     0  0  0  0  0  0999 V2000
   -0.0187    1.5258    0.0104 C   0  0  0  0  0  0  0  0  0  0  0  0
    0.0021   -0.0041    0.0020 C   0  0  0  0  0  0  0  0  0  0  0  0
   -1.3761   -0.5125    0.0124 N   0  0  0  0  0  0  0  0  0  0  0  0
   -2.0534   -0.1720    1.2707 C   0  0  0  0  0  0  0  0  0  0  0  0
   -3.5332   -0.5573    1.1710 C   0  0  0  0  0  0  0  0  0  0  0  0
   -3.6222   -1.9723    0.7800 N   0  0  0  0  0  0  0  0  0  0  0  0
   -2.8581   -2.4191   -0.3946 C   0  0  0  0  0  0  0  0  0  0  0  0
   -1.4048   -1.9606   -0.2332 C   0  0  0  0  0  0  0  0  0  0  0  0
   -4.5583   -3.0343    1.6392 S   0  0  0  0  0  0  0  0  0  0  0  0
   -4.0249   -4.3298    1.4020 O   0  0  0  0  0  0  0  0  0  0  0  0
   -4.6913   -2.4928    2.9463 O   0  0  0  0  0  0  0  0  0  0  0  0
   -6.1662   -3.0120    0.9189 C   0  0  0  0  0  0  0  0  0  0  0  0
   -7.1150   -2.1135    1.3779 C   0  0  0  0  0  0  0  0  0  0  0  0
   -8.3789   -2.0867    0.8210 C   0  0  0  0  0  0  0  0  0  0  0  0
   -8.7056   -2.9611   -0.2036 C   0  0  0  0  0  0  0  0  0  0  0  0
   -7.7484   -3.8716   -0.6714 C   0  0  0  0  0  0  0  0  0  0  0  0
   -6.4726   -3.8851   -0.1029 C   0  0  0  0  0  0  0  0  0  0  0  0
   -8.0850   -4.8074   -1.7612 C   0  0  0  0  0  0  0  0  0  0  0  0
   -9.2892   -4.7631   -2.2803 N   0  0  0  0  0  0  0  0  0  0  0  0
   -9.6614   -5.5809   -3.2699 C   0  0  0  0  0  0  0  0  0  0  0  0
   -8.7474   -6.5166   -3.7751 C   0  0  0  0  0  0  0  0  0  0  0  0
   -7.4062   -6.5578   -3.1882 C   0  0  0  0  0  0  0  0  0  0  0  0
   -7.1275   -5.6832   -2.1942 N   0  0  0  0  0  0  0  0  0  0  0  0
   -6.5685   -7.3492   -3.5848 O   0  0  0  0  0  0  0  0  0  0  0  0
   -9.3603   -7.2055   -4.7488 N   0  0  0  0  0  0  0  0  0  0  0  0
  -10.6007   -6.7629   -4.8877 C   0  0  0  0  0  0  0  0  0  0  0  0
  -10.8213   -5.7512   -3.9824 N   0  0  0  0  0  0  0  0  0  0  0  0
  -12.0364   -5.1268   -3.9273 C   0  0  0  0  0  0  0  0  0  0  0  0
  -13.0358   -5.4908   -4.7560 C   0  0  0  0  0  0  0  0  0  0  0  0
  -12.8417   -6.5215   -5.6921 C   0  0  0  0  0  0  0  0  0  0  0  0
  -11.6399   -7.1520   -5.7612 C   0  0  0  0  0  0  0  0  0  0  0  0
  -12.2613   -4.0202   -2.9293 C   0  0  0  0  0  0  0  0  0  0  0  0
   -9.9473   -2.9360   -0.7513 O   0  0  0  0  0  0  0  0  0  0  0  0
  -10.8702   -1.9814   -0.2230 C   0  0  0  0  0  0  0  0  0  0  0  0
  -12.2059   -2.1018   -0.9593 C   0  0  0  0  0  0  0  0  0  0  0  0
    1.0039    1.9031    0.0027 H   0  0  0  0  0  0  0  0  0  0  0  0
   -0.5459    1.8868   -0.8726 H   0  0  0  0  0  0  0  0  0  0  0  0
   -0.5289    1.8773    0.9072 H   0  0  0  0  0  0  0  0  0  0  0  0
    0.5123   -0.3556   -0.8948 H   0  0  0  0  0  0  0  0  0  0  0  0
    0.5293   -0.3651    0.8851 H   0  0  0  0  0  0  0  0  0  0  0  0
   -1.5900   -0.7179    2.0925 H   0  0  0  0  0  0  0  0  0  0  0  0
   -1.9679    0.8996    1.4513 H   0  0  0  0  0  0  0  0  0  0  0  0
   -4.0149   -0.4136    2.1381 H   0  0  0  0  0  0  0  0  0  0  0  0
   -4.0228    0.0618    0.4192 H   0  0  0  0  0  0  0  0  0  0  0  0
   -2.8935   -3.5065   -0.4625 H   0  0  0  0  0  0  0  0  0  0  0  0
   -3.2828   -1.9791   -1.2968 H   0  0  0  0  0  0  0  0  0  0  0  0
   -0.8490   -2.1862   -1.1433 H   0  0  0  0  0  0  0  0  0  0  0  0
   -0.9505   -2.4815    0.6095 H   0  0  0  0  0  0  0  0  0  0  0  0
   -6.8654   -1.4301    2.1761 H   0  0  0  0  0  0  0  0  0  0  0  0
   -9.1137   -1.3837    1.1847 H   0  0  0  0  0  0  0  0  0  0  0  0
   -5.7285   -4.5814   -0.4606 H   0  0  0  0  0  0  0  0  0  0  0  0
  -13.9901   -4.9883   -4.7002 H   0  0  0  0  0  0  0  0  0  0  0  0
  -13.6443   -6.8107   -6.3543 H   0  0  0  0  0  0  0  0  0  0  0  0
  -11.4812   -7.9447   -6.4773 H   0  0  0  0  0  0  0  0  0  0  0  0
  -11.9928   -3.0646   -3.3797 H   0  0  0  0  0  0  0  0  0  0  0  0
  -13.3113   -4.0021   -2.6373 H   0  0  0  0  0  0  0  0  0  0  0  0
  -11.6423   -4.1936   -2.0489 H   0  0  0  0  0  0  0  0  0  0  0  0
  -11.0224   -2.1726    0.8393 H   0  0  0  0  0  0  0  0  0  0  0  0
  -10.4704   -0.9764   -0.3576 H   0  0  0  0  0  0  0  0  0  0  0  0
  -12.0537   -1.9106   -2.0216 H   0  0  0  0  0  0  0  0  0  0  0  0
  -12.6058   -3.1068   -0.8247 H   0  0  0  0  0  0  0  0  0  0  0  0
  -12.9099   -1.3737   -0.5563 H   0  0  0  0  0  0  0  0  0  0  0  0
   -6.2480   -5.6798   -1.7851 H   0  0  0  0  0  0  0  0  0  0  0  0
  1  2  1  0  0  0  0
  1 36  1  0  0  0  0
  1 37  1  0  0  0  0
  1 38  1  0  0  0  0
  2  3  1  0  0  0  0
  2 39  1  0  0  0  0
  2 40  1  0  0  0  0
  3  8  1  0  0  0  0
  3  4  1  0  0  0  0
  4  5  1  0  0  0  0
  4 41  1  0  0  0  0
  4 42  1  0  0  0  0
  5  6  1  0  0  0  0
  5 43  1  0  0  0  0
  5 44  1  0  0  0  0
  6  7  1  0  0  0  0
  6  9  1  0  0  0  0
  7  8  1  0  0  0  0
  7 45  1  0  0  0  0
  7 46  1  0  0  0  0
  8 47  1  0  0  0  0
  8 48  1  0  0  0  0
  9 10  2  0  0  0  0
  9 11  2  0  0  0  0
  9 12  1  0  0  0  0
 12 17  2  0  0  0  0
 12 13  1  0  0  0  0
 13 14  2  0  0  0  0
 13 49  1  0  0  0  0
 14 15  1  0  0  0  0
 14 50  1  0  0  0  0
 15 16  2  0  0  0  0
 15 33  1  0  0  0  0
 16 17  1  0  0  0  0
 16 18  1  0  0  0  0
 17 51  1  0  0  0  0
 18 23  1  0  0  0  0
 18 19  2  0  0  0  0
 19 20  1  0  0  0  0
 20 27  1  0  0  0  0
 20 21  2  0  0  0  0
 21 22  1  0  0  0  0
 21 25  1  0  0  0  0
 22 23  1  0  0  0  0
 22 24  2  0  0  0  0
 23 63  1  0  0  0  0
 25 26  2  0  0  0  0
 26 31  1  0  0  0  0
 26 27  1  0  0  0  0
 27 28  1  0  0  0  0
 28 29  2  0  0  0  0
 28 32  1  0  0  0  0
 29 30  1  0  0  0  0
 29 52  1  0  0  0  0
 30 31  2  0  0  0  0
 30 53  1  0  0  0  0
 31 54  1  0  0  0  0
 32 55  1  0  0  0  0
 32 56  1  0  0  0  0
 32 57  1  0  0  0  0
 33 34  1  0  0  0  0
 34 35  1  0  0  0  0
 34 58  1  0  0  0  0
 34 59  1  0  0  0  0
 35 60  1  0  0  0  0
 35 61  1  0  0  0  0
 35 62  1  0  0  0  0
M  END
$$$$
CHEMBL426650
  -OEChem-07121202283D

 64 68  0     0  0  0  0  0  0999 V2000
   -0.0187    1.5258    0.0104 C   0  0  0  0  0  0  0  0  0  0  0  0
    0.0021   -0.0041    0.0020 C   0  0  0  0  0  0  0  0  0  0  0  0
    0.6897   -0.4778   -1.2066 N   0  3  0  0  0  0  0  0  0  0  0  0
   -0.0810   -0.0831   -2.3925 C   0  0  0  0  0  0  0  0  0  0  0  0
    0.6914   -0.4756   -3.6563 C   0  0  0  0  0  0  0  0  0  0  0  0
    1.0033   -1.9115   -3.5851 N   0  0  0  0  0  0  0  0  0  0  0  0
    1.6313   -2.4244   -2.3576 C   0  0  0  0  0  0  0  0  0  0  0  0
    0.8145   -1.9399   -1.1552 C   0  0  0  0  0  0  0  0  0  0  0  0
    0.6569   -2.9218   -4.8506 S   0  0  0  0  0  0  0  0  0  0  0  0
    0.5380   -4.2289   -4.3059 O   0  0  0  0  0  0  0  0  0  0  0  0
   -0.3902   -2.3055   -5.5875 O   0  0  0  0  0  0  0  0  0  0  0  0
    2.0697   -2.9415   -5.9033 C   0  0  0  0  0  0  0  0  0  0  0  0
    2.1776   -2.0180   -6.9298 C   0  0  0  0  0  0  0  0  0  0  0  0
    3.2805   -2.0236   -7.7616 C   0  0  0  0  0  0  0  0  0  0  0  0
    4.2885   -2.9560   -7.5729 C   0  0  0  0  0  0  0  0  0  0  0  0
    4.1836   -3.8920   -6.5352 C   0  0  0  0  0  0  0  0  0  0  0  0
    3.0654   -3.8725   -5.6982 C   0  0  0  0  0  0  0  0  0  0  0  0
    5.2502   -4.8895   -6.3251 C   0  0  0  0  0  0  0  0  0  0  0  0
    6.2920   -4.8754   -7.1227 N   0  0  0  0  0  0  0  0  0  0  0  0
    7.2945   -5.7493   -6.9892 C   0  0  0  0  0  0  0  0  0  0  0  0
    7.2420   -6.7126   -5.9716 C   0  0  0  0  0  0  0  0  0  0  0  0
    6.0744   -6.7196   -5.0873 C   0  0  0  0  0  0  0  0  0  0  0  0
    5.1165   -5.7889   -5.3031 N   0  0  0  0  0  0  0  0  0  0  0  0
    5.9717   -7.5327   -4.1853 O   0  0  0  0  0  0  0  0  0  0  0  0
    8.3546   -7.4569   -6.0524 N   0  0  0  0  0  0  0  0  0  0  0  0
    9.1027   -7.0232   -7.0553 C   0  0  0  0  0  0  0  0  0  0  0  0
    8.4723   -5.9608   -7.6601 N   0  0  0  0  0  0  0  0  0  0  0  0
    9.0482   -5.3343   -8.7302 C   0  0  0  0  0  0  0  0  0  0  0  0
   10.2393   -5.7458   -9.2098 C   0  0  0  0  0  0  0  0  0  0  0  0
   10.9084   -6.8291   -8.6138 C   0  0  0  0  0  0  0  0  0  0  0  0
   10.3509   -7.4624   -7.5486 C   0  0  0  0  0  0  0  0  0  0  0  0
    8.3440   -4.1717   -9.3810 C   0  0  0  0  0  0  0  0  0  0  0  0
    5.3725   -2.9628   -8.3899 O   0  0  0  0  0  0  0  0  0  0  0  0
    5.4102   -1.9793   -9.4259 C   0  0  0  0  0  0  0  0  0  0  0  0
    6.6971   -2.1422  -10.2372 C   0  0  0  0  0  0  0  0  0  0  0  0
    1.0039    1.9031    0.0027 H   0  0  0  0  0  0  0  0  0  0  0  0
   -0.5459    1.8868   -0.8726 H   0  0  0  0  0  0  0  0  0  0  0  0
   -0.5289    1.8773    0.9072 H   0  0  0  0  0  0  0  0  0  0  0  0
    0.5293   -0.3651    0.8851 H   0  0  0  0  0  0  0  0  0  0  0  0
   -1.0205   -0.3814    0.0098 H   0  0  0  0  0  0  0  0  0  0  0  0
   -1.0459   -0.5900   -2.3841 H   0  0  0  0  0  0  0  0  0  0  0  0
   -0.2370    0.9956   -2.3821 H   0  0  0  0  0  0  0  0  0  0  0  0
    0.0794   -0.2769   -4.5361 H   0  0  0  0  0  0  0  0  0  0  0  0
    1.6166    0.0979   -3.7130 H   0  0  0  0  0  0  0  0  0  0  0  0
    1.6408   -3.5142   -2.3789 H   0  0  0  0  0  0  0  0  0  0  0  0
    2.6515   -2.0478   -2.2832 H   0  0  0  0  0  0  0  0  0  0  0  0
    1.3185   -2.2295   -0.2331 H   0  0  0  0  0  0  0  0  0  0  0  0
   -0.1775   -2.3907   -1.1843 H   0  0  0  0  0  0  0  0  0  0  0  0
    1.3948   -1.2895   -7.0810 H   0  0  0  0  0  0  0  0  0  0  0  0
    3.3572   -1.3007   -8.5603 H   0  0  0  0  0  0  0  0  0  0  0  0
    2.9793   -4.5882   -4.8941 H   0  0  0  0  0  0  0  0  0  0  0  0
   10.6813   -5.2409  -10.0561 H   0  0  0  0  0  0  0  0  0  0  0  0
   11.8623   -7.1562   -9.0006 H   0  0  0  0  0  0  0  0  0  0  0  0
   10.8576   -8.2953   -7.0839 H   0  0  0  0  0  0  0  0  0  0  0  0
    8.6542   -3.2438   -8.9005 H   0  0  0  0  0  0  0  0  0  0  0  0
    8.6022   -4.1367  -10.4394 H   0  0  0  0  0  0  0  0  0  0  0  0
    7.2661   -4.2937   -9.2738 H   0  0  0  0  0  0  0  0  0  0  0  0
    4.5488   -2.1086  -10.0811 H   0  0  0  0  0  0  0  0  0  0  0  0
    5.3836   -0.9837   -8.9829 H   0  0  0  0  0  0  0  0  0  0  0  0
    7.5585   -2.0129   -9.5820 H   0  0  0  0  0  0  0  0  0  0  0  0
    6.7237   -3.1378  -10.6802 H   0  0  0  0  0  0  0  0  0  0  0  0
    6.7258   -1.3920  -11.0274 H   0  0  0  0  0  0  0  0  0  0  0  0
    4.3313   -5.7616   -4.7341 H   0  0  0  0  0  0  0  0  0  0  0  0
    1.6089   -0.0644   -1.2530 H   0  0  0  0  0  0  0  0  0  0  0  0
  1  2  1  0  0  0  0
  1 36  1  0  0  0  0
  1 37  1  0  0  0  0
  1 38  1  0  0  0  0
  2  3  1  0  0  0  0
  2 39  1  0  0  0  0
  2 40  1  0  0  0  0
  3  8  1  0  0  0  0
  3  4  1  0  0  0  0
  3 64  1  0  0  0  0
  4  5  1  0  0  0  0
  4 41  1  0  0  0  0
  4 42  1  0  0  0  0
  5  6  1  0  0  0  0
  5 43  1  0  0  0  0
  5 44  1  0  0  0  0
  6  7  1  0  0  0  0
  6  9  1  0  0  0  0
  7  8  1  0  0  0  0
  7 45  1  0  0  0  0
  7 46  1  0  0  0  0
  8 47  1  0  0  0  0
  8 48  1  0  0  0  0
  9 10  2  0  0  0  0
  9 11  2  0  0  0  0
  9 12  1  0  0  0  0
 12 17  2  0  0  0  0
 12 13  1  0  0  0  0
 13 14  2  0  0  0  0
 13 49  1  0  0  0  0
 14 15  1  0  0  0  0
 14 50  1  0  0  0  0
 15 16  2  0  0  0  0
 15 33  1  0  0  0  0
 16 17  1  0  0  0  0
 16 18  1  0  0  0  0
 17 51  1  0  0  0  0
 18 23  1  0  0  0  0
 18 19  2  0  0  0  0
 19 20  1  0  0  0  0
 20 27  1  0  0  0  0
 20 21  2  0  0  0  0
 21 22  1  0  0  0  0
 21 25  1  0  0  0  0
 22 23  1  0  0  0  0
 22 24  2  0  0  0  0
 23 63  1  0  0  0  0
 25 26  2  0  0  0  0
 26 31  1  0  0  0  0
 26 27  1  0  0  0  0
 27 28  1  0  0  0  0
 28 29  2  0  0  0  0
 28 32  1  0  0  0  0
 29 30  1  0  0  0  0
 29 52  1  0  0  0  0
 30 31  2  0  0  0  0
 30 53  1  0  0  0  0
 31 54  1  0  0  0  0
 32 55  1  0  0  0  0
 32 56  1  0  0  0  0
 32 57  1  0  0  0  0
 33 34  1  0  0  0  0
 34 35  1  0  0  0  0
 34 58  1  0  0  0  0
 34 59  1  0  0  0  0
 35 60  1  0  0  0  0
 35 61  1  0  0  0  0
 35 62  1  0  0  0  0
M  CHG  1   3   1
M  END
$$$$
CHEMBL562756
  -OEChem-07121202283D

 65 68  0     0  0  0  0  0  0999 V2000
   -0.0187    1.5258    0.0104 C   0  0  0  0  0  0  0  0  0  0  0  0
    0.0021   -0.0041    0.0020 C   0  0  0  0  0  0  0  0  0  0  0  0
    0.7182   -0.4975   -1.2568 C   0  0  0  0  0  0  0  0  0  0  0  0
    0.7376   -1.9263   -1.2646 O   0  0  0  0  0  0  0  0  0  0  0  0
    1.3873   -2.4925   -2.4045 C   0  0  0  0  0  0  0  0  0  0  0  0
    1.3486   -4.0190   -2.3077 C   0  0  0  0  0  0  0  0  0  0  0  0
   -0.0404   -4.4782   -2.3855 N   0  0  0  0  0  0  0  0  0  0  0  0
   -0.7967   -4.6142   -1.2386 C   0  0  0  0  0  0  0  0  0  0  0  0
   -2.1306   -5.0560   -1.3269 C   0  0  0  0  0  0  0  0  0  0  0  0
   -2.8851   -5.1885   -0.1485 C   0  0  0  0  0  0  0  0  0  0  0  0
   -2.2913   -4.8816    1.0447 C   0  0  0  0  0  0  0  0  0  0  0  0
   -0.9626   -4.4483    1.0625 C   0  0  0  0  0  0  0  0  0  0  0  0
   -0.2655   -4.3295   -0.0588 N   0  0  0  0  0  0  0  0  0  0  0  0
   -0.3223   -4.1162    2.3566 C   0  0  0  0  0  0  0  0  0  0  0  0
   -1.0279   -4.2363    3.5579 C   0  0  0  0  0  0  0  0  0  0  0  0
   -0.4211   -3.9302    4.6907 N   0  0  0  0  0  0  0  0  0  0  0  0
    0.8361   -3.5152    4.6979 C   0  0  0  0  0  0  0  0  0  0  0  0
    1.5378   -3.3884    3.5825 N   0  0  0  0  0  0  0  0  0  0  0  0
    1.0052   -3.6800    2.4091 C   0  0  0  0  0  0  0  0  0  0  0  0
    1.4211   -3.2112    5.8806 O   0  0  0  0  0  0  0  0  0  0  0  0
    2.7789   -2.7677    5.8377 C   0  0  0  0  0  0  0  0  0  0  0  0
   -2.6843   -5.3502   -2.5191 N   0  0  0  0  0  0  0  0  0  0  0  0
   -1.9969   -5.2328   -3.6275 C   0  0  0  0  0  0  0  0  0  0  0  0
   -0.5985   -4.7681   -3.5803 C   0  0  0  0  0  0  0  0  0  0  0  0
    0.0465   -4.6512   -4.6059 O   0  0  0  0  0  0  0  0  0  0  0  0
   -2.5839   -5.5406   -4.8425 N   0  0  0  0  0  0  0  0  0  0  0  0
   -3.9749   -5.9979   -4.8890 C   0  0  0  0  0  0  0  0  0  0  0  0
   -4.3749   -6.2674   -6.3410 C   0  0  0  0  0  0  0  0  0  0  0  0
   -5.7697   -6.7260   -6.3877 N   0  0  0  0  0  0  0  0  0  0  0  0
   -5.9145   -8.0390   -5.7424 C   0  0  0  0  0  0  0  0  0  0  0  0
   -7.3890   -8.4506   -5.7604 C   0  0  0  0  0  0  0  0  0  0  0  0
   -7.8608   -8.4558   -7.1104 O   0  0  0  0  0  0  0  0  0  0  0  0
   -7.7354   -7.1926   -7.7690 C   0  0  0  0  0  0  0  0  0  0  0  0
   -6.2644   -6.7682   -7.7714 C   0  0  0  0  0  0  0  0  0  0  0  0
    1.0039    1.9031    0.0027 H   0  0  0  0  0  0  0  0  0  0  0  0
   -0.5459    1.8868   -0.8726 H   0  0  0  0  0  0  0  0  0  0  0  0
   -0.5289    1.8773    0.9072 H   0  0  0  0  0  0  0  0  0  0  0  0
    0.5293   -0.3651    0.8851 H   0  0  0  0  0  0  0  0  0  0  0  0
   -1.0205   -0.3814    0.0098 H   0  0  0  0  0  0  0  0  0  0  0  0
    0.1910   -0.1364   -2.1398 H   0  0  0  0  0  0  0  0  0  0  0  0
    1.7408   -0.1202   -1.2645 H   0  0  0  0  0  0  0  0  0  0  0  0
    0.8740   -2.1729   -3.3114 H   0  0  0  0  0  0  0  0  0  0  0  0
    2.4238   -2.1566   -2.4361 H   0  0  0  0  0  0  0  0  0  0  0  0
    1.9203   -4.4498   -3.1297 H   0  0  0  0  0  0  0  0  0  0  0  0
    1.7828   -4.3340   -1.3589 H   0  0  0  0  0  0  0  0  0  0  0  0
   -3.9108   -5.5248   -0.1844 H   0  0  0  0  0  0  0  0  0  0  0  0
   -2.8455   -4.9732    1.9671 H   0  0  0  0  0  0  0  0  0  0  0  0
   -2.0538   -4.5739    3.5595 H   0  0  0  0  0  0  0  0  0  0  0  0
    1.5851   -3.5789    1.5037 H   0  0  0  0  0  0  0  0  0  0  0  0
    2.8462   -1.8613    5.2361 H   0  0  0  0  0  0  0  0  0  0  0  0
    3.1249   -2.5585    6.8499 H   0  0  0  0  0  0  0  0  0  0  0  0
    3.4012   -3.5451    5.3944 H   0  0  0  0  0  0  0  0  0  0  0  0
   -2.0743   -5.4534   -5.6632 H   0  0  0  0  0  0  0  0  0  0  0  0
   -4.0756   -6.9147   -4.3082 H   0  0  0  0  0  0  0  0  0  0  0  0
   -4.6243   -5.2292   -4.4700 H   0  0  0  0  0  0  0  0  0  0  0  0
   -4.2742   -5.3506   -6.9218 H   0  0  0  0  0  0  0  0  0  0  0  0
   -3.7255   -7.0361   -6.7600 H   0  0  0  0  0  0  0  0  0  0  0  0
   -5.3237   -8.7778   -6.2840 H   0  0  0  0  0  0  0  0  0  0  0  0
   -5.5661   -7.9783   -4.7114 H   0  0  0  0  0  0  0  0  0  0  0  0
   -7.4935   -9.4485   -5.3344 H   0  0  0  0  0  0  0  0  0  0  0  0
   -7.9722   -7.7408   -5.1737 H   0  0  0  0  0  0  0  0  0  0  0  0
   -8.0905   -7.2805   -8.7958 H   0  0  0  0  0  0  0  0  0  0  0  0
   -8.3287   -6.4462   -7.2408 H   0  0  0  0  0  0  0  0  0  0  0  0
   -6.1714   -5.7798   -8.2215 H   0  0  0  0  0  0  0  0  0  0  0  0
   -5.6792   -7.4867   -8.3454 H   0  0  0  0  0  0  0  0  0  0  0  0
  1  2  1  0  0  0  0
  1 35  1  0  0  0  0
  1 36  1  0  0  0  0
  1 37  1  0  0  0  0
  2  3  1  0  0  0  0
  2 38  1  0  0  0  0
  2 39  1  0  0  0  0
  3  4  1  0  0  0  0
  3 40  1  0  0  0  0
  3 41  1  0  0  0  0
  4  5  1  0  0  0  0
  5  6  1  0  0  0  0
  5 42  1  0  0  0  0
  5 43  1  0  0  0  0
  6  7  1  0  0  0  0
  6 44  1  0  0  0  0
  6 45  1  0  0  0  0
  7 24  1  0  0  0  0
  7  8  1  0  0  0  0
  8 13  2  0  0  0  0
  8  9  1  0  0  0  0
  9 10  2  0  0  0  0
  9 22  1  0  0  0  0
 10 11  1  0  0  0  0
 10 46  1  0  0  0  0
 11 12  2  0  0  0  0
 11 47  1  0  0  0  0
 12 13  1  0  0  0  0
 12 14  1  0  0  0  0
 14 19  2  0  0  0  0
 14 15  1  0  0  0  0
 15 16  2  0  0  0  0
 15 48  1  0  0  0  0
 16 17  1  0  0  0  0
 17 18  2  0  0  0  0
 17 20  1  0  0  0  0
 18 19  1  0  0  0  0
 19 49  1  0  0  0  0
 20 21  1  0  0  0  0
 21 50  1  0  0  0  0
 21 51  1  0  0  0  0
 21 52  1  0  0  0  0
 22 23  2  0  0  0  0
 23 24  1  0  0  0  0
 23 26  1  0  0  0  0
 24 25  2  0  0  0  0
 26 27  1  0  0  0  0
 26 53  1  0  0  0  0
 27 28  1  0  0  0  0
 27 54  1  0  0  0  0
 27 55  1  0  0  0  0
 28 29  1  0  0  0  0
 28 56  1  0  0  0  0
 28 57  1  0  0  0  0
 29 34  1  0  0  0  0
 29 30  1  0  0  0  0
 30 31  1  0  0  0  0
 30 58  1  0  0  0  0
 30 59  1  0  0  0  0
 31 32  1  0  0  0  0
 31 60  1  0  0  0  0
 31 61  1  0  0  0  0
 32 33  1  0  0  0  0
 33 34  1  0  0  0  0
 33 62  1  0  0  0  0
 33 63  1  0  0  0  0
 34 64  1  0  0  0  0
 34 65  1  0  0  0  0
M  END
$$$$
CHEMBL562756
  -OEChem-07121202283D

 66 69  0     0  0  0  0  0  0999 V2000
   -0.0187    1.5258    0.0104 C   0  0  0  0  0  0  0  0  0  0  0  0
    0.0021   -0.0041    0.0020 C   0  0  0  0  0  0  0  0  0  0  0  0
    0.7182   -0.4975   -1.2568 C   0  0  0  0  0  0  0  0  0  0  0  0
    0.7376   -1.9263   -1.2646 O   0  0  0  0  0  0  0  0  0  0  0  0
    1.3873   -2.4925   -2.4045 C   0  0  0  0  0  0  0  0  0  0  0  0
    1.3486   -4.0190   -2.3077 C   0  0  0  0  0  0  0  0  0  0  0  0
   -0.0404   -4.4782   -2.3855 N   0  0  0  0  0  0  0  0  0  0  0  0
   -0.7967   -4.6142   -1.2386 C   0  0  0  0  0  0  0  0  0  0  0  0
   -2.1306   -5.0560   -1.3269 C   0  0  0  0  0  0  0  0  0  0  0  0
   -2.8851   -5.1885   -0.1485 C   0  0  0  0  0  0  0  0  0  0  0  0
   -2.2913   -4.8816    1.0447 C   0  0  0  0  0  0  0  0  0  0  0  0
   -0.9626   -4.4483    1.0625 C   0  0  0  0  0  0  0  0  0  0  0  0
   -0.2655   -4.3295   -0.0588 N   0  0  0  0  0  0  0  0  0  0  0  0
   -0.3223   -4.1162    2.3566 C   0  0  0  0  0  0  0  0  0  0  0  0
   -1.0279   -4.2363    3.5579 C   0  0  0  0  0  0  0  0  0  0  0  0
   -0.4211   -3.9302    4.6907 N   0  0  0  0  0  0  0  0  0  0  0  0
    0.8361   -3.5152    4.6979 C   0  0  0  0  0  0  0  0  0  0  0  0
    1.5378   -3.3884    3.5825 N   0  0  0  0  0  0  0  0  0  0  0  0
    1.0052   -3.6800    2.4091 C   0  0  0  0  0  0  0  0  0  0  0  0
    1.4211   -3.2112    5.8806 O   0  0  0  0  0  0  0  0  0  0  0  0
    2.7789   -2.7677    5.8377 C   0  0  0  0  0  0  0  0  0  0  0  0
   -2.6843   -5.3502   -2.5191 N   0  0  0  0  0  0  0  0  0  0  0  0
   -1.9969   -5.2328   -3.6275 C   0  0  0  0  0  0  0  0  0  0  0  0
   -0.5985   -4.7681   -3.5803 C   0  0  0  0  0  0  0  0  0  0  0  0
    0.0465   -4.6512   -4.6059 O   0  0  0  0  0  0  0  0  0  0  0  0
   -2.5839   -5.5406   -4.8425 N   0  0  0  0  0  0  0  0  0  0  0  0
   -3.9749   -5.9979   -4.8890 C   0  0  0  0  0  0  0  0  0  0  0  0
   -4.3749   -6.2674   -6.3410 C   0  0  0  0  0  0  0  0  0  0  0  0
   -5.7697   -6.7260   -6.3877 N   0  3  0  0  0  0  0  0  0  0  0  0
   -5.8819   -8.0235   -5.7073 C   0  0  0  0  0  0  0  0  0  0  0  0
   -7.3360   -8.4990   -5.7571 C   0  0  0  0  0  0  0  0  0  0  0  0
   -7.7583   -8.5828   -7.1211 O   0  0  0  0  0  0  0  0  0  0  0  0
   -7.6450   -7.3478   -7.8337 C   0  0  0  0  0  0  0  0  0  0  0  0
   -6.1915   -6.8702   -7.7878 C   0  0  0  0  0  0  0  0  0  0  0  0
    1.0039    1.9031    0.0027 H   0  0  0  0  0  0  0  0  0  0  0  0
   -0.5459    1.8868   -0.8726 H   0  0  0  0  0  0  0  0  0  0  0  0
   -0.5289    1.8773    0.9072 H   0  0  0  0  0  0  0  0  0  0  0  0
    0.5293   -0.3651    0.8851 H   0  0  0  0  0  0  0  0  0  0  0  0
   -1.0205   -0.3814    0.0098 H   0  0  0  0  0  0  0  0  0  0  0  0
    0.1910   -0.1364   -2.1398 H   0  0  0  0  0  0  0  0  0  0  0  0
    1.7408   -0.1202   -1.2645 H   0  0  0  0  0  0  0  0  0  0  0  0
    0.8740   -2.1729   -3.3114 H   0  0  0  0  0  0  0  0  0  0  0  0
    2.4238   -2.1566   -2.4361 H   0  0  0  0  0  0  0  0  0  0  0  0
    1.9203   -4.4498   -3.1297 H   0  0  0  0  0  0  0  0  0  0  0  0
    1.7828   -4.3340   -1.3589 H   0  0  0  0  0  0  0  0  0  0  0  0
   -3.9108   -5.5248   -0.1844 H   0  0  0  0  0  0  0  0  0  0  0  0
   -2.8455   -4.9732    1.9671 H   0  0  0  0  0  0  0  0  0  0  0  0
   -2.0538   -4.5739    3.5595 H   0  0  0  0  0  0  0  0  0  0  0  0
    1.5851   -3.5789    1.5037 H   0  0  0  0  0  0  0  0  0  0  0  0
    3.1249   -2.5585    6.8499 H   0  0  0  0  0  0  0  0  0  0  0  0
    3.4012   -3.5451    5.3944 H   0  0  0  0  0  0  0  0  0  0  0  0
    2.8462   -1.8613    5.2361 H   0  0  0  0  0  0  0  0  0  0  0  0
   -2.0743   -5.4534   -5.6632 H   0  0  0  0  0  0  0  0  0  0  0  0
   -4.0756   -6.9147   -4.3082 H   0  0  0  0  0  0  0  0  0  0  0  0
   -4.6243   -5.2292   -4.4700 H   0  0  0  0  0  0  0  0  0  0  0  0
   -4.2742   -5.3506   -6.9218 H   0  0  0  0  0  0  0  0  0  0  0  0
   -3.7255   -7.0361   -6.7600 H   0  0  0  0  0  0  0  0  0  0  0  0
   -5.2437   -8.7524   -6.2068 H   0  0  0  0  0  0  0  0  0  0  0  0
   -5.5693   -7.9176   -4.6685 H   0  0  0  0  0  0  0  0  0  0  0  0
   -7.4140   -9.4812   -5.2909 H   0  0  0  0  0  0  0  0  0  0  0  0
   -7.9691   -7.7906   -5.2229 H   0  0  0  0  0  0  0  0  0  0  0  0
   -7.9467   -7.4969   -8.8705 H   0  0  0  0  0  0  0  0  0  0  0  0
   -8.2887   -6.6000   -7.3706 H   0  0  0  0  0  0  0  0  0  0  0  0
   -6.1087   -5.9081   -8.2934 H   0  0  0  0  0  0  0  0  0  0  0  0
   -5.5532   -7.5995   -8.2866 H   0  0  0  0  0  0  0  0  0  0  0  0
   -6.3612   -6.0515   -5.9258 H   0  0  0  0  0  0  0  0  0  0  0  0
  1  2  1  0  0  0  0
  1 35  1  0  0  0  0
  1 36  1  0  0  0  0
  1 37  1  0  0  0  0
  2  3  1  0  0  0  0
  2 38  1  0  0  0  0
  2 39  1  0  0  0  0
  3  4  1  0  0  0  0
  3 40  1  0  0  0  0
  3 41  1  0  0  0  0
  4  5  1  0  0  0  0
  5  6  1  0  0  0  0
  5 42  1  0  0  0  0
  5 43  1  0  0  0  0
  6  7  1  0  0  0  0
  6 44  1  0  0  0  0
  6 45  1  0  0  0  0
  7 24  1  0  0  0  0
  7  8  1  0  0  0  0
  8 13  2  0  0  0  0
  8  9  1  0  0  0  0
  9 10  2  0  0  0  0
  9 22  1  0  0  0  0
 10 11  1  0  0  0  0
 10 46  1  0  0  0  0
 11 12  2  0  0  0  0
 11 47  1  0  0  0  0
 12 13  1  0  0  0  0
 12 14  1  0  0  0  0
 14 19  2  0  0  0  0
 14 15  1  0  0  0  0
 15 16  2  0  0  0  0
 15 48  1  0  0  0  0
 16 17  1  0  0  0  0
 17 18  2  0  0  0  0
 17 20  1  0  0  0  0
 18 19  1  0  0  0  0
 19 49  1  0  0  0  0
 20 21  1  0  0  0  0
 21 50  1  0  0  0  0
 21 51  1  0  0  0  0
 21 52  1  0  0  0  0
 22 23  2  0  0  0  0
 23 24  1  0  0  0  0
 23 26  1  0  0  0  0
 24 25  2  0  0  0  0
 26 27  1  0  0  0  0
 26 53  1  0  0  0  0
 27 28  1  0  0  0  0
 27 54  1  0  0  0  0
 27 55  1  0  0  0  0
 28 29  1  0  0  0  0
 28 56  1  0  0  0  0
 28 57  1  0  0  0  0
 29 34  1  0  0  0  0
 29 30  1  0  0  0  0
 29 66  1  0  0  0  0
 30 31  1  0  0  0  0
 30 58  1  0  0  0  0
 30 59  1  0  0  0  0
 31 32  1  0  0  0  0
 31 60  1  0  0  0  0
 31 61  1  0  0  0  0
 32 33  1  0  0  0  0
 33 34  1  0  0  0  0
 33 62  1  0  0  0  0
 33 63  1  0  0  0  0
 34 64  1  0  0  0  0
 34 65  1  0  0  0  0
M  CHG  1  29   1
M  END
$$$$
CHEMBL371451
  -OEChem-07121202283D

 54 59  0     0  0  0  0  0  0999 V2000
   -0.0184    1.5028    0.0103 C   0  0  0  0  0  0  0  0  0  0  0  0
    0.0021   -0.0041    0.0020 C   0  0  0  0  0  0  0  0  0  0  0  0
   -1.2116   -0.7176    0.0040 C   0  0  0  0  0  0  0  0  0  0  0  0
   -2.5152   -0.0540    0.0134 C   0  0  0  0  0  0  0  0  0  0  0  0
   -2.9315    1.2561    0.0216 C   0  0  0  0  0  0  0  0  0  0  0  0
   -4.3325    1.2538    0.0274 C   0  0  0  0  0  0  0  0  0  0  0  0
   -4.7525    0.0019    0.0229 N   0  0  0  0  0  0  0  0  0  0  0  0
   -3.6408   -0.8479    0.0141 N   0  0  0  0  0  0  0  0  0  0  0  0
   -3.5070   -2.2146    0.0067 C   0  0  0  0  0  0  0  0  0  0  0  0
   -2.3405   -2.8099   -0.0011 N   0  0  0  0  0  0  0  0  0  0  0  0
   -1.1892   -2.1250   -0.0038 C   0  0  0  0  0  0  0  0  0  0  0  0
    0.1145   -2.7934   -0.0132 C   0  0  0  0  0  0  0  0  0  0  0  0
    0.1930   -4.0101   -0.0206 O   0  0  0  0  0  0  0  0  0  0  0  0
    1.2276   -2.0277   -0.0140 N   0  0  0  0  0  0  0  0  0  0  0  0
    1.1428   -0.6337   -0.0123 N   0  0  0  0  0  0  0  0  0  0  0  0
    2.5443   -2.6699   -0.0233 C   0  0  0  0  0  0  0  0  0  0  0  0
    2.9895   -2.8823   -1.4473 C   0  0  0  0  0  0  0  0  0  0  0  0
    2.6641   -4.0534   -2.1058 C   0  0  0  0  0  0  0  0  0  0  0  0
    3.0724   -4.2483   -3.4120 C   0  0  0  0  0  0  0  0  0  0  0  0
    3.8058   -3.2719   -4.0599 C   0  0  0  0  0  0  0  0  0  0  0  0
    4.1305   -2.1005   -3.4017 C   0  0  0  0  0  0  0  0  0  0  0  0
    3.7185   -1.9038   -2.0969 C   0  0  0  0  0  0  0  0  0  0  0  0
   -4.7278   -3.0466    0.0081 C   0  0  0  0  0  0  0  0  0  0  0  0
   -4.6371   -4.4442    0.0067 C   0  0  0  0  0  0  0  0  0  0  0  0
   -5.8104   -5.1773    0.0086 C   0  0  0  0  0  0  0  0  0  0  0  0
   -7.0241   -4.5130    0.0118 C   0  0  0  0  0  0  0  0  0  0  0  0
   -7.0793   -3.1950    0.0131 N   0  0  0  0  0  0  0  0  0  0  0  0
   -5.9912   -2.4532    0.0168 C   0  0  0  0  0  0  0  0  0  0  0  0
   -5.2001    2.4580    0.0377 C   0  0  0  0  0  0  0  0  0  0  0  0
   -4.6311    3.7297    0.0366 C   0  0  0  0  0  0  0  0  0  0  0  0
   -5.4426    4.8461    0.0457 C   0  0  0  0  0  0  0  0  0  0  0  0
   -6.8184    4.7041    0.0564 C   0  0  0  0  0  0  0  0  0  0  0  0
   -7.3887    3.4439    0.0575 C   0  0  0  0  0  0  0  0  0  0  0  0
   -6.5866    2.3207    0.0426 C   0  0  0  0  0  0  0  0  0  0  0  0
    1.0042    1.8801    0.0026 H   0  0  0  0  0  0  0  0  0  0  0  0
   -0.5455    1.8639   -0.8728 H   0  0  0  0  0  0  0  0  0  0  0  0
   -0.5286    1.8543    0.9071 H   0  0  0  0  0  0  0  0  0  0  0  0
   -2.2945    2.1283    0.0236 H   0  0  0  0  0  0  0  0  0  0  0  0
    3.2633   -2.0320    0.4908 H   0  0  0  0  0  0  0  0  0  0  0  0
    2.4830   -3.6318    0.4856 H   0  0  0  0  0  0  0  0  0  0  0  0
    2.0911   -4.8162   -1.5996 H   0  0  0  0  0  0  0  0  0  0  0  0
    2.8188   -5.1635   -3.9262 H   0  0  0  0  0  0  0  0  0  0  0  0
    4.1255   -3.4245   -5.0801 H   0  0  0  0  0  0  0  0  0  0  0  0
    4.7038   -1.3378   -3.9077 H   0  0  0  0  0  0  0  0  0  0  0  0
    3.9689   -0.9870   -1.5839 H   0  0  0  0  0  0  0  0  0  0  0  0
   -3.6761   -4.9370    0.0038 H   0  0  0  0  0  0  0  0  0  0  0  0
   -5.7792   -6.2568    0.0072 H   0  0  0  0  0  0  0  0  0  0  0  0
   -7.9414   -5.0830    0.0130 H   0  0  0  0  0  0  0  0  0  0  0  0
   -6.0771   -1.3766    0.0221 H   0  0  0  0  0  0  0  0  0  0  0  0
   -3.5569    3.8418    0.0290 H   0  0  0  0  0  0  0  0  0  0  0  0
   -5.0026    5.8324    0.0449 H   0  0  0  0  0  0  0  0  0  0  0  0
   -7.4498    5.5803    0.0642 H   0  0  0  0  0  0  0  0  0  0  0  0
   -8.4635    3.3386    0.0662 H   0  0  0  0  0  0  0  0  0  0  0  0
   -7.0328    1.3372    0.0390 H   0  0  0  0  0  0  0  0  0  0  0  0
  1  2  1  0  0  0  0
  1 35  1  0  0  0  0
  1 36  1  0  0  0  0
  1 37  1  0  0  0  0
  2 15  2  0  0  0  0
  2  3  1  0  0  0  0
  3 11  2  0  0  0  0
  3  4  1  0  0  0  0
  4  8  1  0  0  0  0
  4  5  2  0  0  0  0
  5  6  1  0  0  0  0
  5 38  1  0  0  0  0
  6  7  2  0  0  0  0
  6 29  1  0  0  0  0
  7  8  1  0  0  0  0
  8  9  1  0  0  0  0
  9 10  2  0  0  0  0
  9 23  1  0  0  0  0
 10 11  1  0  0  0  0
 11 12  1  0  0  0  0
 12 13  2  0  0  0  0
 12 14  1  0  0  0  0
 14 15  1  0  0  0  0
 14 16  1  0  0  0  0
 16 17  1  0  0  0  0
 16 39  1  0  0  0  0
 16 40  1  0  0  0  0
 17 22  2  0  0  0  0
 17 18  1  0  0  0  0
 18 19  2  0  0  0  0
 18 41  1  0  0  0  0
 19 20  1  0  0  0  0
 19 42  1  0  0  0  0
 20 21  2  0  0  0  0
 20 43  1  0  0  0  0
 21 22  1  0  0  0  0
 21 44  1  0  0  0  0
 22 45  1  0  0  0  0
 23 28  2  0  0  0  0
 23 24  1  0  0  0  0
 24 25  2  0  0  0  0
 24 46  1  0  0  0  0
 25 26  1  0  0  0  0
 25 47  1  0  0  0  0
 26 27  2  0  0  0  0
 26 48  1  0  0  0  0
 27 28  1  0  0  0  0
 28 49  1  0  0  0  0
 29 34  2  0  0  0  0
 29 30  1  0  0  0  0
 30 31  2  0  0  0  0
 30 50  1  0  0  0  0
 31 32  1  0  0  0  0
 31 51  1  0  0  0  0
 32 33  2  0  0  0  0
 32 52  1  0  0  0  0
 33 34  1  0  0  0  0
 33 53  1  0  0  0  0
 34 54  1  0  0  0  0
M  END
$$$$
CHEMBL563669
  -OEChem-07121202283D

 60 62  0     0  0  0  0  0  0999 V2000
   -0.0187    1.5258    0.0104 C   0  0  0  0  0  0  0  0  0  0  0  0
    0.0021   -0.0041    0.0020 C   0  0  0  0  0  0  0  0  0  0  0  0
    0.7182   -0.4975   -1.2568 C   0  0  0  0  0  0  0  0  0  0  0  0
    0.7376   -1.9263   -1.2646 O   0  0  0  0  0  0  0  0  0  0  0  0
    1.3873   -2.4925   -2.4045 C   0  0  0  0  0  0  0  0  0  0  0  0
    1.3486   -4.0190   -2.3077 C   0  0  0  0  0  0  0  0  0  0  0  0
   -0.0404   -4.4782   -2.3855 N   0  0  0  0  0  0  0  0  0  0  0  0
   -0.7966   -4.6143   -1.2385 C   0  0  0  0  0  0  0  0  0  0  0  0
   -2.1305   -5.0566   -1.3268 C   0  0  0  0  0  0  0  0  0  0  0  0
   -2.8850   -5.1892   -0.1484 C   0  0  0  0  0  0  0  0  0  0  0  0
   -2.2913   -4.8819    1.0447 C   0  0  0  0  0  0  0  0  0  0  0  0
   -0.9627   -4.4480    1.0625 C   0  0  0  0  0  0  0  0  0  0  0  0
   -0.2656   -4.3291   -0.0588 N   0  0  0  0  0  0  0  0  0  0  0  0
   -0.3225   -4.1159    2.3565 C   0  0  0  0  0  0  0  0  0  0  0  0
    0.9689   -3.5753    2.3921 C   0  0  0  0  0  0  0  0  0  0  0  0
    1.5238   -3.2821    3.6221 C   0  0  0  0  0  0  0  0  0  0  0  0
    0.7884   -3.5310    4.7759 C   0  0  0  0  0  0  0  0  0  0  0  0
   -0.4298   -4.0432    4.7085 N   0  0  0  0  0  0  0  0  0  0  0  0
   -0.9986   -4.3315    3.5553 C   0  0  0  0  0  0  0  0  0  0  0  0
    1.3275   -3.2453    5.9870 O   0  0  0  0  0  0  0  0  0  0  0  0
    0.5247   -3.5226    7.1362 C   0  0  0  0  0  0  0  0  0  0  0  0
   -2.6840   -5.3512   -2.5190 N   0  0  0  0  0  0  0  0  0  0  0  0
   -1.9966   -5.2338   -3.6274 C   0  0  0  0  0  0  0  0  0  0  0  0
   -0.5985   -4.7681   -3.5803 C   0  0  0  0  0  0  0  0  0  0  0  0
    0.0464   -4.6512   -4.6059 O   0  0  0  0  0  0  0  0  0  0  0  0
   -2.5836   -5.5415   -4.8424 N   0  0  0  0  0  0  0  0  0  0  0  0
   -3.9746   -5.9988   -4.8889 C   0  0  0  0  0  0  0  0  0  0  0  0
   -4.3685   -6.2643   -6.3191 C   0  0  0  0  0  0  0  0  0  0  0  0
   -3.5663   -6.0888   -7.2116 O   0  0  0  0  0  0  0  0  0  0  0  0
   -5.6123   -6.6968   -6.6063 N   0  0  0  0  0  0  0  0  0  0  0  0
   -5.9952   -6.9550   -7.9966 C   0  0  0  0  0  0  0  0  0  0  0  0
   -6.5813   -6.9089   -5.5282 C   0  0  0  0  0  0  0  0  0  0  0  0
    1.0039    1.9031    0.0027 H   0  0  0  0  0  0  0  0  0  0  0  0
   -0.5459    1.8868   -0.8726 H   0  0  0  0  0  0  0  0  0  0  0  0
   -0.5289    1.8773    0.9072 H   0  0  0  0  0  0  0  0  0  0  0  0
    0.5293   -0.3651    0.8851 H   0  0  0  0  0  0  0  0  0  0  0  0
   -1.0205   -0.3814    0.0098 H   0  0  0  0  0  0  0  0  0  0  0  0
    0.1910   -0.1364   -2.1398 H   0  0  0  0  0  0  0  0  0  0  0  0
    1.7408   -0.1202   -1.2645 H   0  0  0  0  0  0  0  0  0  0  0  0
    0.8740   -2.1729   -3.3114 H   0  0  0  0  0  0  0  0  0  0  0  0
    2.4238   -2.1566   -2.4361 H   0  0  0  0  0  0  0  0  0  0  0  0
    1.9203   -4.4498   -3.1297 H   0  0  0  0  0  0  0  0  0  0  0  0
    1.7828   -4.3340   -1.3589 H   0  0  0  0  0  0  0  0  0  0  0  0
   -3.9105   -5.5258   -0.1843 H   0  0  0  0  0  0  0  0  0  0  0  0
   -2.8456   -4.9734    1.9671 H   0  0  0  0  0  0  0  0  0  0  0  0
    1.5175   -3.3926    1.4800 H   0  0  0  0  0  0  0  0  0  0  0  0
    2.5176   -2.8645    3.6873 H   0  0  0  0  0  0  0  0  0  0  0  0
   -1.9966   -4.7438    3.5397 H   0  0  0  0  0  0  0  0  0  0  0  0
    0.2866   -4.5859    7.1651 H   0  0  0  0  0  0  0  0  0  0  0  0
    1.0733   -3.2485    8.0374 H   0  0  0  0  0  0  0  0  0  0  0  0
   -0.3980   -2.9449    7.0828 H   0  0  0  0  0  0  0  0  0  0  0  0
   -2.0740   -5.4543   -5.6632 H   0  0  0  0  0  0  0  0  0  0  0  0
   -4.0752   -6.9157   -4.3082 H   0  0  0  0  0  0  0  0  0  0  0  0
   -4.6240   -5.2302   -4.4699 H   0  0  0  0  0  0  0  0  0  0  0  0
   -5.7734   -7.9921   -8.2480 H   0  0  0  0  0  0  0  0  0  0  0  0
   -7.0627   -6.7716   -8.1195 H   0  0  0  0  0  0  0  0  0  0  0  0
   -5.4346   -6.2931   -8.6568 H   0  0  0  0  0  0  0  0  0  0  0  0
   -7.1384   -5.9883   -5.3542 H   0  0  0  0  0  0  0  0  0  0  0  0
   -7.2717   -7.7034   -5.8113 H   0  0  0  0  0  0  0  0  0  0  0  0
   -6.0547   -7.1926   -4.6170 H   0  0  0  0  0  0  0  0  0  0  0  0
  1  2  1  0  0  0  0
  1 33  1  0  0  0  0
  1 34  1  0  0  0  0
  1 35  1  0  0  0  0
  2  3  1  0  0  0  0
  2 36  1  0  0  0  0
  2 37  1  0  0  0  0
  3  4  1  0  0  0  0
  3 38  1  0  0  0  0
  3 39  1  0  0  0  0
  4  5  1  0  0  0  0
  5  6  1  0  0  0  0
  5 40  1  0  0  0  0
  5 41  1  0  0  0  0
  6  7  1  0  0  0  0
  6 42  1  0  0  0  0
  6 43  1  0  0  0  0
  7 24  1  0  0  0  0
  7  8  1  0  0  0  0
  8 13  2  0  0  0  0
  8  9  1  0  0  0  0
  9 10  2  0  0  0  0
  9 22  1  0  0  0  0
 10 11  1  0  0  0  0
 10 44  1  0  0  0  0
 11 12  2  0  0  0  0
 11 45  1  0  0  0  0
 12 13  1  0  0  0  0
 12 14  1  0  0  0  0
 14 19  2  0  0  0  0
 14 15  1  0  0  0  0
 15 16  2  0  0  0  0
 15 46  1  0  0  0  0
 16 17  1  0  0  0  0
 16 47  1  0  0  0  0
 17 18  2  0  0  0  0
 17 20  1  0  0  0  0
 18 19  1  0  0  0  0
 19 48  1  0  0  0  0
 20 21  1  0  0  0  0
 21 49  1  0  0  0  0
 21 50  1  0  0  0  0
 21 51  1  0  0  0  0
 22 23  2  0  0  0  0
 23 24  1  0  0  0  0
 23 26  1  0  0  0  0
 24 25  2  0  0  0  0
 26 27  1  0  0  0  0
 26 52  1  0  0  0  0
 27 28  1  0  0  0  0
 27 53  1  0  0  0  0
 27 54  1  0  0  0  0
 28 29  2  0  0  0  0
 28 30  1  0  0  0  0
 30 31  1  0  0  0  0
 30 32  1  0  0  0  0
 31 55  1  0  0  0  0
 31 56  1  0  0  0  0
 31 57  1  0  0  0  0
 32 58  1  0  0  0  0
 32 59  1  0  0  0  0
 32 60  1  0  0  0  0
M  END
$$$$
CHEMBL86512
  -OEChem-07121202283D

 75 78  0     0  0  0  0  0  0999 V2000
   -0.0187    1.5258    0.0104 C   0  0  0  0  0  0  0  0  0  0  0  0
    0.0021   -0.0041    0.0020 C   0  0  0  0  0  0  0  0  0  0  0  0
    0.7182   -0.4975   -1.2568 C   0  0  0  0  0  0  0  0  0  0  0  0
    0.7376   -1.9263   -1.2646 O   0  0  0  0  0  0  0  0  0  0  0  0
    1.3406   -2.5287   -2.3211 C   0  0  0  0  0  0  0  0  0  0  0  0
    1.9079   -1.7633   -3.3280 C   0  0  0  0  0  0  0  0  0  0  0  0
    2.5213   -2.3774   -4.4026 C   0  0  0  0  0  0  0  0  0  0  0  0
    2.5749   -3.7589   -4.4826 C   0  0  0  0  0  0  0  0  0  0  0  0
    2.0156   -4.5350   -3.4898 C   0  0  0  0  0  0  0  0  0  0  0  0
    1.3973   -3.9265   -2.3957 C   0  0  0  0  0  0  0  0  0  0  0  0
    0.8018   -4.7516   -1.3260 C   0  0  0  0  0  0  0  0  0  0  0  0
    0.1861   -4.2862   -0.2563 N   0  0  0  0  0  0  0  0  0  0  0  0
    1.1774   -6.7102   -1.9543 H   0  0  0  0  0  0  0  0  0  0  0  0
   -0.2305   -5.2988    0.5028 C   0  0  0  0  0  0  0  0  0  0  0  0
    0.1463   -6.4804   -0.1279 C   0  0  0  0  0  0  0  0  0  0  0  0
    0.7965   -6.1132   -1.2915 N   0  0  0  0  0  0  0  0  0  0  0  0
   -0.1778   -7.7139    0.4736 C   0  0  0  0  0  0  0  0  0  0  0  0
    0.1418   -8.7618   -0.0593 O   0  0  0  0  0  0  0  0  0  0  0  0
   -0.8452   -7.7208    1.6460 N   0  0  0  0  0  0  0  0  0  0  0  0
   -1.2037   -6.5724    2.2455 C   0  0  0  0  0  0  0  0  0  0  0  0
   -1.8040   -6.6179    3.3020 O   0  0  0  0  0  0  0  0  0  0  0  0
   -0.9146   -5.3733    1.7064 N   0  0  0  0  0  0  0  0  0  0  0  0
   -1.3232   -4.1451    2.3927 C   0  0  0  0  0  0  0  0  0  0  0  0
   -2.7189   -3.7358    1.9180 C   0  0  0  0  0  0  0  0  0  0  0  0
   -3.7349   -4.7963    2.3469 C   0  0  0  0  0  0  0  0  0  0  0  0
   -3.0943   -2.3890    2.5394 C   0  0  0  0  0  0  0  0  0  0  0  0
   -1.1848   -8.9994    2.2752 C   0  0  0  0  0  0  0  0  0  0  0  0
    3.3606   -4.5281   -5.8594 S   0  0  0  0  0  0  0  0  0  0  0  0
    2.7994   -5.8286   -5.9729 O   0  0  0  0  0  0  0  0  0  0  0  0
    3.3260   -3.5878   -6.9243 O   0  0  0  0  0  0  0  0  0  0  0  0
    4.9549   -4.7338   -5.4613 N   0  0  0  0  0  0  0  0  0  0  0  0
    5.9418   -3.6868   -5.7588 C   0  0  0  0  0  0  0  0  0  0  0  0
    6.6952   -3.3391   -4.4710 C   0  0  0  0  0  0  0  0  0  0  0  0
    7.2931   -4.6152   -3.8742 C   0  0  0  0  0  0  0  0  0  0  0  0
    6.1686   -5.5935   -3.5269 C   0  0  0  0  0  0  0  0  0  0  0  0
    5.4082   -5.9641   -4.7984 C   0  0  0  0  0  0  0  0  0  0  0  0
    8.0755   -4.2670   -2.6064 C   0  0  0  0  0  0  0  0  0  0  0  0
    8.7761   -5.5207   -2.0789 C   0  0  0  0  0  0  0  0  0  0  0  0
    9.5069   -5.1955   -0.8947 O   0  0  0  0  0  0  0  0  0  0  0  0
    1.0039    1.9031    0.0027 H   0  0  0  0  0  0  0  0  0  0  0  0
   -0.5459    1.8868   -0.8726 H   0  0  0  0  0  0  0  0  0  0  0  0
   -0.5289    1.8773    0.9072 H   0  0  0  0  0  0  0  0  0  0  0  0
    0.5293   -0.3651    0.8851 H   0  0  0  0  0  0  0  0  0  0  0  0
   -1.0205   -0.3814    0.0098 H   0  0  0  0  0  0  0  0  0  0  0  0
    0.1910   -0.1364   -2.1398 H   0  0  0  0  0  0  0  0  0  0  0  0
    1.7408   -0.1202   -1.2645 H   0  0  0  0  0  0  0  0  0  0  0  0
    1.8701   -0.6854   -3.2724 H   0  0  0  0  0  0  0  0  0  0  0  0
    2.9613   -1.7768   -5.1850 H   0  0  0  0  0  0  0  0  0  0  0  0
    2.0589   -5.6121   -3.5564 H   0  0  0  0  0  0  0  0  0  0  0  0
   -1.3418   -4.3191    3.4685 H   0  0  0  0  0  0  0  0  0  0  0  0
   -0.6142   -3.3490    2.1656 H   0  0  0  0  0  0  0  0  0  0  0  0
   -2.7219   -3.6481    0.8315 H   0  0  0  0  0  0  0  0  0  0  0  0
   -4.7292   -4.5047    2.0087 H   0  0  0  0  0  0  0  0  0  0  0  0
   -3.4674   -5.7558    1.9042 H   0  0  0  0  0  0  0  0  0  0  0  0
   -3.7318   -4.8840    3.4334 H   0  0  0  0  0  0  0  0  0  0  0  0
   -2.3705   -1.6335    2.2338 H   0  0  0  0  0  0  0  0  0  0  0  0
   -4.0886   -2.0974    2.2012 H   0  0  0  0  0  0  0  0  0  0  0  0
   -3.0913   -2.4767    3.6258 H   0  0  0  0  0  0  0  0  0  0  0  0
   -0.8197   -9.8179    1.6548 H   0  0  0  0  0  0  0  0  0  0  0  0
   -0.7204   -9.0547    3.2597 H   0  0  0  0  0  0  0  0  0  0  0  0
   -2.2671   -9.0771    2.3791 H   0  0  0  0  0  0  0  0  0  0  0  0
    6.6459   -4.0503   -6.5072 H   0  0  0  0  0  0  0  0  0  0  0  0
    5.4316   -2.7998   -6.1344 H   0  0  0  0  0  0  0  0  0  0  0  0
    7.4948   -2.6336   -4.6965 H   0  0  0  0  0  0  0  0  0  0  0  0
    6.0054   -2.8914   -3.7555 H   0  0  0  0  0  0  0  0  0  0  0  0
    7.9638   -5.0757   -4.5996 H   0  0  0  0  0  0  0  0  0  0  0  0
    6.5935   -6.4925   -3.0804 H   0  0  0  0  0  0  0  0  0  0  0  0
    5.4838   -5.1246   -2.8203 H   0  0  0  0  0  0  0  0  0  0  0  0
    4.5461   -6.5793   -4.5407 H   0  0  0  0  0  0  0  0  0  0  0  0
    6.0678   -6.5175   -5.4668 H   0  0  0  0  0  0  0  0  0  0  0  0
    8.8197   -3.5046   -2.8366 H   0  0  0  0  0  0  0  0  0  0  0  0
    7.3896   -3.8881   -1.8487 H   0  0  0  0  0  0  0  0  0  0  0  0
    8.0319   -6.2831   -1.8487 H   0  0  0  0  0  0  0  0  0  0  0  0
    9.4620   -5.8996   -2.8366 H   0  0  0  0  0  0  0  0  0  0  0  0
    9.9773   -5.9449   -0.5046 H   0  0  0  0  0  0  0  0  0  0  0  0
  1  2  1  0  0  0  0
  1 40  1  0  0  0  0
  1 41  1  0  0  0  0
  1 42  1  0  0  0  0
  2  3  1  0  0  0  0
  2 43  1  0  0  0  0
  2 44  1  0  0  0  0
  3  4  1  0  0  0  0
  3 45  1  0  0  0  0
  3 46  1  0  0  0  0
  4  5  1  0  0  0  0
  5 10  2  0  0  0  0
  5  6  1  0  0  0  0
  6  7  2  0  0  0  0
  6 47  1  0  0  0  0
  7  8  1  0  0  0  0
  7 48  1  0  0  0  0
  8  9  2  0  0  0  0
  8 28  1  0  0  0  0
  9 10  1  0  0  0  0
  9 49  1  0  0  0  0
 10 11  1  0  0  0  0
 11 16  1  0  0  0  0
 11 12  2  0  0  0  0
 12 14  1  0  0  0  0
 13 16  1  0  0  0  0
 14 22  1  0  0  0  0
 14 15  2  0  0  0  0
 15 17  1  0  0  0  0
 15 16  1  0  0  0  0
 17 19  1  0  0  0  0
 17 18  2  0  0  0  0
 19 20  1  0  0  0  0
 19 27  1  0  0  0  0
 20 22  1  0  0  0  0
 20 21  2  0  0  0  0
 22 23  1  0  0  0  0
 23 24  1  0  0  0  0
 23 50  1  0  0  0  0
 23 51  1  0  0  0  0
 24 25  1  0  0  0  0
 24 26  1  0  0  0  0
 24 52  1  0  0  0  0
 25 53  1  0  0  0  0
 25 54  1  0  0  0  0
 25 55  1  0  0  0  0
 26 56  1  0  0  0  0
 26 57  1  0  0  0  0
 26 58  1  0  0  0  0
 27 59  1  0  0  0  0
 27 60  1  0  0  0  0
 27 61  1  0  0  0  0
 28 29  2  0  0  0  0
 28 30  2  0  0  0  0
 28 31  1  0  0  0  0
 31 36  1  0  0  0  0
 31 32  1  0  0  0  0
 32 33  1  0  0  0  0
 32 62  1  0  0  0  0
 32 63  1  0  0  0  0
 33 34  1  0  0  0  0
 33 64  1  0  0  0  0
 33 65  1  0  0  0  0
 34 35  1  0  0  0  0
 34 37  1  0  0  0  0
 34 66  1  0  0  0  0
 35 36  1  0  0  0  0
 35 67  1  0  0  0  0
 35 68  1  0  0  0  0
 36 69  1  0  0  0  0
 36 70  1  0  0  0  0
 37 38  1  0  0  0  0
 37 71  1  0  0  0  0
 37 72  1  0  0  0  0
 38 39  1  0  0  0  0
 38 73  1  0  0  0  0
 38 74  1  0  0  0  0
 39 75  1  0  0  0  0
M  END
$$$$
CHEMBL72650
  -OEChem-07121202283D

 41 44  0     0  0  0  0  0  0999 V2000
   -0.0167    1.3781    0.0096 C   0  0  0  0  0  0  0  0  0  0  0  0
    1.1709    2.0855    0.0021 C   0  0  0  0  0  0  0  0  0  0  0  0
    2.3773    1.4107   -0.0130 C   0  0  0  0  0  0  0  0  0  0  0  0
    2.3960    0.0285   -0.0201 C   0  0  0  0  0  0  0  0  0  0  0  0
    1.2084   -0.6789   -0.0117 C   0  0  0  0  0  0  0  0  0  0  0  0
    0.0021   -0.0041    0.0020 C   0  0  0  0  0  0  0  0  0  0  0  0
    3.7112   -0.7071   -0.0376 C   0  0  0  0  0  0  0  0  0  0  0  0
    4.1518   -0.9524    1.3379 N   0  0  0  0  0  0  0  0  0  0  0  0
    5.3374   -1.6154    1.5741 C   0  0  0  0  0  0  0  0  0  0  0  0
    5.7780   -1.8675    2.8978 C   0  0  0  0  0  0  0  0  0  0  0  0
    5.0407   -1.4612    4.0149 C   0  0  0  0  0  0  0  0  0  0  0  0
    5.5124   -1.7308    5.2662 C   0  0  0  0  0  0  0  0  0  0  0  0
    6.7171   -2.4045    5.4465 C   0  0  0  0  0  0  0  0  0  0  0  0
    7.4596   -2.8135    4.3791 C   0  0  0  0  0  0  0  0  0  0  0  0
    7.0043   -2.5534    3.0786 C   0  0  0  0  0  0  0  0  0  0  0  0
    7.6962   -2.9352    1.9965 N   0  0  0  0  0  0  0  0  0  0  0  0
    7.2403   -2.6750    0.7856 C   0  0  0  0  0  0  0  0  0  0  0  0
    6.0909   -2.0377    0.5703 N   0  0  0  0  0  0  0  0  0  0  0  0
    8.0383   -3.1157   -0.3839 C   0  0  0  0  0  0  0  0  0  0  0  0
    7.5889   -2.8522   -1.6769 C   0  0  0  0  0  0  0  0  0  0  0  0
    8.3357   -3.2648   -2.7615 C   0  0  0  0  0  0  0  0  0  0  0  0
    9.5282   -3.9386   -2.5676 C   0  0  0  0  0  0  0  0  0  0  0  0
    9.9791   -4.2028   -1.2868 C   0  0  0  0  0  0  0  0  0  0  0  0
    9.2435   -3.7900   -0.1945 C   0  0  0  0  0  0  0  0  0  0  0  0
   -0.9591    1.9053    0.0259 H   0  0  0  0  0  0  0  0  0  0  0  0
    1.1563    3.1654    0.0076 H   0  0  0  0  0  0  0  0  0  0  0  0
    3.3051    1.9634   -0.0196 H   0  0  0  0  0  0  0  0  0  0  0  0
    1.2231   -1.7588   -0.0176 H   0  0  0  0  0  0  0  0  0  0  0  0
   -0.9258   -0.5567    0.0082 H   0  0  0  0  0  0  0  0  0  0  0  0
    3.5884   -1.6586   -0.5549 H   0  0  0  0  0  0  0  0  0  0  0  0
    4.4573   -0.1052   -0.5563 H   0  0  0  0  0  0  0  0  0  0  0  0
    3.6095   -0.6484    2.0824 H   0  0  0  0  0  0  0  0  0  0  0  0
    4.1048   -0.9374    3.8876 H   0  0  0  0  0  0  0  0  0  0  0  0
    4.9434   -1.4168    6.1289 H   0  0  0  0  0  0  0  0  0  0  0  0
    7.0690   -2.6060    6.4475 H   0  0  0  0  0  0  0  0  0  0  0  0
    8.3926   -3.3350    4.5340 H   0  0  0  0  0  0  0  0  0  0  0  0
    6.6578   -2.3266   -1.8295 H   0  0  0  0  0  0  0  0  0  0  0  0
    7.9883   -3.0615   -3.7637 H   0  0  0  0  0  0  0  0  0  0  0  0
   10.1092   -4.2599   -3.4194 H   0  0  0  0  0  0  0  0  0  0  0  0
   10.9106   -4.7295   -1.1413 H   0  0  0  0  0  0  0  0  0  0  0  0
    9.5987   -3.9929    0.8050 H   0  0  0  0  0  0  0  0  0  0  0  0
  1  6  2  0  0  0  0
  1  2  1  0  0  0  0
  1 25  1  0  0  0  0
  2  3  2  0  0  0  0
  2 26  1  0  0  0  0
  3  4  1  0  0  0  0
  3 27  1  0  0  0  0
  4  5  2  0  0  0  0
  4  7  1  0  0  0  0
  5  6  1  0  0  0  0
  5 28  1  0  0  0  0
  6 29  1  0  0  0  0
  7  8  1  0  0  0  0
  7 30  1  0  0  0  0
  7 31  1  0  0  0  0
  8  9  1  0  0  0  0
  8 32  1  0  0  0  0
  9 18  2  0  0  0  0
  9 10  1  0  0  0  0
 10 15  2  0  0  0  0
 10 11  1  0  0  0  0
 11 12  2  0  0  0  0
 11 33  1  0  0  0  0
 12 13  1  0  0  0  0
 12 34  1  0  0  0  0
 13 14  2  0  0  0  0
 13 35  1  0  0  0  0
 14 15  1  0  0  0  0
 14 36  1  0  0  0  0
 15 16  1  0  0  0  0
 16 17  2  0  0  0  0
 17 18  1  0  0  0  0
 17 19  1  0  0  0  0
 19 24  2  0  0  0  0
 19 20  1  0  0  0  0
 20 21  2  0  0  0  0
 20 37  1  0  0  0  0
 21 22  1  0  0  0  0
 21 38  1  0  0  0  0
 22 23  2  0  0  0  0
 22 39  1  0  0  0  0
 23 24  1  0  0  0  0
 23 40  1  0  0  0  0
 24 41  1  0  0  0  0
M  END
$$$$
CHEMBL188628
  -OEChem-07121202283D

 47 50  0     0  0  0  0  0  0999 V2000
    0.0745    1.3364    1.1918 C   0  0  0  0  0  0  0  0  0  0  0  0
    1.2600    2.0457    1.1343 C   0  0  0  0  0  0  0  0  0  0  0  0
    2.4586    1.3781    0.9734 C   0  0  0  0  0  0  0  0  0  0  0  0
    2.4723   -0.0053    0.8699 C   0  0  0  0  0  0  0  0  0  0  0  0
    1.2815   -0.7148    0.9284 C   0  0  0  0  0  0  0  0  0  0  0  0
    0.0855   -0.0424    1.0889 C   0  0  0  0  0  0  0  0  0  0  0  0
    3.6501   -0.6644    0.7112 O   0  0  0  0  0  0  0  0  0  0  0  0
    3.5883   -2.0886    0.6118 C   0  0  0  0  0  0  0  0  0  0  0  0
    4.9799   -2.6411    0.4409 C   0  0  0  0  0  0  0  0  0  0  0  0
    6.0606   -1.7738    0.4097 C   0  0  0  0  0  0  0  0  0  0  0  0
    7.3387   -2.2862    0.2528 C   0  0  0  0  0  0  0  0  0  0  0  0
    7.4906   -3.6588    0.1318 C   0  0  0  0  0  0  0  0  0  0  0  0
    6.3595   -4.4708    0.1719 C   0  0  0  0  0  0  0  0  0  0  0  0
    5.1528   -3.9398    0.3288 N   0  0  0  0  0  0  0  0  0  0  0  0
    6.5048   -5.9392    0.0441 C   0  0  0  0  0  0  0  0  0  0  0  0
    7.6074   -6.4309   -0.0951 O   0  0  0  0  0  0  0  0  0  0  0  0
    5.4141   -6.7301    0.0822 N   0  0  0  0  0  0  0  0  0  0  0  0
    5.5503   -8.1070   -0.0377 C   0  0  0  0  0  0  0  0  0  0  0  0
    4.6085   -9.0256   -0.0287 N   0  0  0  0  0  0  0  0  0  0  0  0
    4.9032  -10.3061   -0.1551 C   0  0  0  0  0  0  0  0  0  0  0  0
    6.2134  -10.6261   -0.2936 C   0  0  0  0  0  0  0  0  0  0  0  0
    6.9596   -9.0051   -0.2373 S   0  0  0  0  0  0  0  0  0  0  0  0
    3.8311  -11.3651   -0.1453 C   0  0  0  0  0  0  0  0  0  0  0  0
    2.6828  -11.2171   -1.1455 C   0  0  0  0  0  0  0  0  0  0  0  0
    2.4395  -10.9572    0.3425 C   0  0  0  0  0  0  0  0  0  0  0  0
    4.2994  -12.7611    0.1756 C   0  0  0  0  0  0  0  0  0  0  0  0
    4.2357  -13.6308   -0.6673 O   0  0  0  0  0  0  0  0  0  0  0  0
    4.7888  -13.0431    1.3992 N   0  0  0  0  0  0  0  0  0  0  0  0
    5.3259  -14.3253    1.6688 O   0  0  0  0  0  0  0  0  0  0  0  0
   -0.8611    1.8599    1.3218 H   0  0  0  0  0  0  0  0  0  0  0  0
    1.2488    3.1226    1.2148 H   0  0  0  0  0  0  0  0  0  0  0  0
    3.3843    1.9326    0.9278 H   0  0  0  0  0  0  0  0  0  0  0  0
    1.2895   -1.7917    0.8478 H   0  0  0  0  0  0  0  0  0  0  0  0
   -0.8418   -0.5942    1.1345 H   0  0  0  0  0  0  0  0  0  0  0  0
    3.1441   -2.4972    1.5194 H   0  0  0  0  0  0  0  0  0  0  0  0
    2.9789   -2.3667   -0.2481 H   0  0  0  0  0  0  0  0  0  0  0  0
    5.9081   -0.7090    0.5064 H   0  0  0  0  0  0  0  0  0  0  0  0
    8.1968   -1.6310    0.2251 H   0  0  0  0  0  0  0  0  0  0  0  0
    8.4720   -4.0923    0.0079 H   0  0  0  0  0  0  0  0  0  0  0  0
    4.5341   -6.3376    0.1933 H   0  0  0  0  0  0  0  0  0  0  0  0
    6.6774  -11.5944   -0.4100 H   0  0  0  0  0  0  0  0  0  0  0  0
    2.7027  -10.3538   -1.8106 H   0  0  0  0  0  0  0  0  0  0  0  0
    2.2659  -12.1296   -1.5718 H   0  0  0  0  0  0  0  0  0  0  0  0
    1.8625  -11.6986    0.8952 H   0  0  0  0  0  0  0  0  0  0  0  0
    2.2994   -9.9228    0.6564 H   0  0  0  0  0  0  0  0  0  0  0  0
    4.7733  -12.3677    2.0953 H   0  0  0  0  0  0  0  0  0  0  0  0
    5.6521  -14.4330    2.5727 H   0  0  0  0  0  0  0  0  0  0  0  0
  1  6  2  0  0  0  0
  1  2  1  0  0  0  0
  1 30  1  0  0  0  0
  2  3  2  0  0  0  0
  2 31  1  0  0  0  0
  3  4  1  0  0  0  0
  3 32  1  0  0  0  0
  4  5  2  0  0  0  0
  4  7  1  0  0  0  0
  5  6  1  0  0  0  0
  5 33  1  0  0  0  0
  6 34  1  0  0  0  0
  7  8  1  0  0  0  0
  8  9  1  0  0  0  0
  8 35  1  0  0  0  0
  8 36  1  0  0  0  0
  9 14  2  0  0  0  0
  9 10  1  0  0  0  0
 10 11  2  0  0  0  0
 10 37  1  0  0  0  0
 11 12  1  0  0  0  0
 11 38  1  0  0  0  0
 12 13  2  0  0  0  0
 12 39  1  0  0  0  0
 13 14  1  0  0  0  0
 13 15  1  0  0  0  0
 15 16  2  0  0  0  0
 15 17  1  0  0  0  0
 17 18  1  0  0  0  0
 17 40  1  0  0  0  0
 18 22  1  0  0  0  0
 18 19  2  0  0  0  0
 19 20  1  0  0  0  0
 20 21  2  0  0  0  0
 20 23  1  0  0  0  0
 21 22  1  0  0  0  0
 21 41  1  0  0  0  0
 23 25  1  0  0  0  0
 23 24  1  0  0  0  0
 23 26  1  0  0  0  0
 24 25  1  0  0  0  0
 24 42  1  0  0  0  0
 24 43  1  0  0  0  0
 25 44  1  0  0  0  0
 25 45  1  0  0  0  0
 26 27  2  0  0  0  0
 26 28  1  0  0  0  0
 28 29  1  0  0  0  0
 28 46  1  0  0  0  0
 29 47  1  0  0  0  0
M  END
$$$$
CHEMBL305989
  -OEChem-07121202283D

 63 68  0     0  0  0  0  0  0999 V2000
   -0.0178    1.4608    0.0101 C   0  0  0  0  0  0  0  0  0  0  0  0
    0.0021   -0.0041    0.0020 N   0  0  0  0  0  0  0  0  0  0  0  0
    0.0054   -0.6578   -1.1733 C   0  0  0  0  0  0  0  0  0  0  0  0
   -0.0079   -0.0331   -2.2188 O   0  0  0  0  0  0  0  0  0  0  0  0
    0.0246   -2.0683   -1.1934 C   0  0  0  0  0  0  0  0  0  0  0  0
    0.0348   -2.7660    0.0057 C   0  0  0  0  0  0  0  0  0  0  0  0
    0.0516   -4.0685   -0.2939 N   0  0  0  0  0  0  0  0  0  0  0  0
    0.0537   -4.2246   -1.5930 C   0  0  0  0  0  0  0  0  0  0  0  0
    0.0375   -3.0199   -2.1953 N   0  0  0  0  0  0  0  0  0  0  0  0
    0.0337   -2.7666   -3.6382 C   0  0  0  0  0  0  0  0  0  0  0  0
    1.4531   -2.6608   -4.1334 C   0  0  0  0  0  0  0  0  0  0  0  0
    2.0904   -1.4342   -4.1482 C   0  0  0  0  0  0  0  0  0  0  0  0
    3.3924   -1.3371   -4.6023 C   0  0  0  0  0  0  0  0  0  0  0  0
    4.0573   -2.4668   -5.0413 C   0  0  0  0  0  0  0  0  0  0  0  0
    3.4203   -3.6935   -5.0257 C   0  0  0  0  0  0  0  0  0  0  0  0
    2.1198   -3.7913   -4.5675 C   0  0  0  0  0  0  0  0  0  0  0  0
    0.0723   -5.5514   -2.3073 C   0  0  0  0  0  0  0  0  0  0  0  0
   -1.3637   -6.0205   -2.5495 C   0  0  0  0  0  0  0  0  0  0  0  0
   -2.0399   -6.3672   -1.2070 C   0  0  0  0  0  0  0  0  0  0  0  0
   -2.9198   -7.5997   -1.5320 C   0  0  0  0  0  0  0  0  0  0  0  0
   -2.0379   -8.3971   -2.5247 C   0  0  0  0  0  0  0  0  0  0  0  0
   -1.3625   -7.3111   -3.3873 C   0  0  0  0  0  0  0  0  0  0  0  0
    0.0284   -2.0635    1.2008 N   0  0  0  0  0  0  0  0  0  0  0  0
    0.0228   -0.6908    1.2057 C   0  0  0  0  0  0  0  0  0  0  0  0
    0.0352   -0.1826    2.4115 N   0  3  0  0  0  0  0  0  0  0  0  0
    0.0552   -1.2468    3.4034 C   0  0  0  0  0  0  0  0  0  0  0  0
    0.0340   -2.5461    2.5950 C   0  0  0  0  0  0  0  0  0  0  0  0
   -1.1578   -1.1723    4.3463 C   0  0  0  0  0  0  0  0  0  0  0  0
   -0.6844   -0.1703    5.4312 C   0  0  0  0  0  0  0  0  0  0  0  0
    0.8146   -0.4877    5.6165 C   0  0  0  0  0  0  0  0  0  0  0  0
    1.2849   -1.1641    4.3140 C   0  0  0  0  0  0  0  0  0  0  0  0
    1.0048    1.8381    0.0023 H   0  0  0  0  0  0  0  0  0  0  0  0
   -0.5450    1.8219   -0.8730 H   0  0  0  0  0  0  0  0  0  0  0  0
   -0.5280    1.8123    0.9069 H   0  0  0  0  0  0  0  0  0  0  0  0
   -0.4693   -3.5871   -4.1498 H   0  0  0  0  0  0  0  0  0  0  0  0
   -0.4926   -1.8341   -3.8420 H   0  0  0  0  0  0  0  0  0  0  0  0
    1.5709   -0.5516   -3.8052 H   0  0  0  0  0  0  0  0  0  0  0  0
    3.8900   -0.3787   -4.6146 H   0  0  0  0  0  0  0  0  0  0  0  0
    5.0743   -2.3908   -5.3968 H   0  0  0  0  0  0  0  0  0  0  0  0
    3.9397   -4.5761   -5.3689 H   0  0  0  0  0  0  0  0  0  0  0  0
    1.6234   -4.7503   -4.5517 H   0  0  0  0  0  0  0  0  0  0  0  0
    0.5850   -5.4424   -3.2631 H   0  0  0  0  0  0  0  0  0  0  0  0
    0.5962   -6.2860   -1.6957 H   0  0  0  0  0  0  0  0  0  0  0  0
   -1.9287   -5.2425   -3.0630 H   0  0  0  0  0  0  0  0  0  0  0  0
   -1.2908   -6.6205   -0.4568 H   0  0  0  0  0  0  0  0  0  0  0  0
   -2.6577   -5.5368   -0.8653 H   0  0  0  0  0  0  0  0  0  0  0  0
   -3.1139   -8.1838   -0.6325 H   0  0  0  0  0  0  0  0  0  0  0  0
   -3.8534   -7.2940   -2.0043 H   0  0  0  0  0  0  0  0  0  0  0  0
   -1.2885   -8.9782   -1.9873 H   0  0  0  0  0  0  0  0  0  0  0  0
   -2.6543   -9.0481   -3.1447 H   0  0  0  0  0  0  0  0  0  0  0  0
   -1.9276   -7.1598   -4.3070 H   0  0  0  0  0  0  0  0  0  0  0  0
   -0.3388   -7.6033   -3.6214 H   0  0  0  0  0  0  0  0  0  0  0  0
   -0.8628   -3.1286    2.8055 H   0  0  0  0  0  0  0  0  0  0  0  0
    0.9316   -3.1303    2.7977 H   0  0  0  0  0  0  0  0  0  0  0  0
   -2.0325   -0.7888    3.8212 H   0  0  0  0  0  0  0  0  0  0  0  0
   -1.3662   -2.1478    4.7857 H   0  0  0  0  0  0  0  0  0  0  0  0
   -0.8170    0.8552    5.0865 H   0  0  0  0  0  0  0  0  0  0  0  0
   -1.2264   -0.3332    6.3628 H   0  0  0  0  0  0  0  0  0  0  0  0
    1.3737    0.4332    5.7821 H   0  0  0  0  0  0  0  0  0  0  0  0
    0.9516   -1.1650    6.4596 H   0  0  0  0  0  0  0  0  0  0  0  0
    1.6613   -2.1647    4.5266 H   0  0  0  0  0  0  0  0  0  0  0  0
    2.0619   -0.5642    3.8401 H   0  0  0  0  0  0  0  0  0  0  0  0
    0.0318    0.7659    2.6145 H   0  0  0  0  0  0  0  0  0  0  0  0
  1  2  1  0  0  0  0
  1 32  1  0  0  0  0
  1 33  1  0  0  0  0
  1 34  1  0  0  0  0
  2 24  1  0  0  0  0
  2  3  1  0  0  0  0
  3  4  2  0  0  0  0
  3  5  1  0  0  0  0
  5  9  1  0  0  0  0
  5  6  2  0  0  0  0
  6  7  1  0  0  0  0
  6 23  1  0  0  0  0
  7  8  2  0  0  0  0
  8  9  1  0  0  0  0
  8 17  1  0  0  0  0
  9 10  1  0  0  0  0
 10 11  1  0  0  0  0
 10 35  1  0  0  0  0
 10 36  1  0  0  0  0
 11 16  2  0  0  0  0
 11 12  1  0  0  0  0
 12 13  2  0  0  0  0
 12 37  1  0  0  0  0
 13 14  1  0  0  0  0
 13 38  1  0  0  0  0
 14 15  2  0  0  0  0
 14 39  1  0  0  0  0
 15 16  1  0  0  0  0
 15 40  1  0  0  0  0
 16 41  1  0  0  0  0
 17 18  1  0  0  0  0
 17 42  1  0  0  0  0
 17 43  1  0  0  0  0
 18 22  1  0  0  0  0
 18 19  1  0  0  0  0
 18 44  1  0  0  0  0
 19 20  1  0  0  0  0
 19 45  1  0  0  0  0
 19 46  1  0  0  0  0
 20 21  1  0  0  0  0
 20 47  1  0  0  0  0
 20 48  1  0  0  0  0
 21 22  1  0  0  0  0
 21 49  1  0  0  0  0
 21 50  1  0  0  0  0
 22 51  1  0  0  0  0
 22 52  1  0  0  0  0
 23 27  1  0  0  0  0
 23 24  1  0  0  0  0
 24 25  2  0  0  0  0
 25 26  1  0  0  0  0
 25 63  1  0  0  0  0
 26 31  1  0  0  0  0
 26 27  1  0  0  0  0
 26 28  1  0  0  0  0
 27 53  1  0  0  0  0
 27 54  1  0  0  0  0
 28 29  1  0  0  0  0
 28 55  1  0  0  0  0
 28 56  1  0  0  0  0
 29 30  1  0  0  0  0
 29 57  1  0  0  0  0
 29 58  1  0  0  0  0
 30 31  1  0  0  0  0
 30 59  1  0  0  0  0
 30 60  1  0  0  0  0
 31 61  1  0  0  0  0
 31 62  1  0  0  0  0
M  CHG  1  25   1
M  END
$$$$
CHEMBL305989
  -OEChem-07121202283D

 64 69  0     0  0  0  0  0  0999 V2000
   -0.0178    1.4608    0.0101 C   0  0  0  0  0  0  0  0  0  0  0  0
    0.0021   -0.0041    0.0020 N   0  0  0  0  0  0  0  0  0  0  0  0
    0.0054   -0.6578   -1.1733 C   0  0  0  0  0  0  0  0  0  0  0  0
   -0.0079   -0.0331   -2.2188 O   0  0  0  0  0  0  0  0  0  0  0  0
    0.0246   -2.0683   -1.1934 C   0  0  0  0  0  0  0  0  0  0  0  0
    0.0348   -2.7660    0.0057 C   0  0  0  0  0  0  0  0  0  0  0  0
    0.0516   -4.0685   -0.2939 N   0  3  0  0  0  0  0  0  0  0  0  0
    0.0537   -4.2246   -1.5930 C   0  0  0  0  0  0  0  0  0  0  0  0
    0.0375   -3.0199   -2.1953 N   0  0  0  0  0  0  0  0  0  0  0  0
    0.0337   -2.7666   -3.6382 C   0  0  0  0  0  0  0  0  0  0  0  0
    1.4531   -2.6608   -4.1334 C   0  0  0  0  0  0  0  0  0  0  0  0
    2.0904   -1.4342   -4.1482 C   0  0  0  0  0  0  0  0  0  0  0  0
    3.3924   -1.3371   -4.6023 C   0  0  0  0  0  0  0  0  0  0  0  0
    4.0573   -2.4668   -5.0413 C   0  0  0  0  0  0  0  0  0  0  0  0
    3.4203   -3.6935   -5.0257 C   0  0  0  0  0  0  0  0  0  0  0  0
    2.1198   -3.7913   -4.5675 C   0  0  0  0  0  0  0  0  0  0  0  0
    0.0723   -5.5514   -2.3073 C   0  0  0  0  0  0  0  0  0  0  0  0
   -1.3574   -6.0800   -2.4388 C   0  0  0  0  0  0  0  0  0  0  0  0
   -1.9137   -6.4507   -1.0485 C   0  0  0  0  0  0  0  0  0  0  0  0
   -2.7643   -7.7194   -1.3057 C   0  0  0  0  0  0  0  0  0  0  0  0
   -1.9289   -8.4824   -2.3635 C   0  0  0  0  0  0  0  0  0  0  0  0
   -1.3671   -7.3717   -3.2749 C   0  0  0  0  0  0  0  0  0  0  0  0
    0.0284   -2.0635    1.2008 N   0  0  0  0  0  0  0  0  0  0  0  0
    0.0228   -0.6908    1.2057 C   0  0  0  0  0  0  0  0  0  0  0  0
    0.0352   -0.1826    2.4115 N   0  3  0  0  0  0  0  0  0  0  0  0
    0.0552   -1.2468    3.4034 C   0  0  0  0  0  0  0  0  0  0  0  0
    0.0340   -2.5461    2.5950 C   0  0  0  0  0  0  0  0  0  0  0  0
   -1.1578   -1.1723    4.3463 C   0  0  0  0  0  0  0  0  0  0  0  0
   -0.6844   -0.1703    5.4312 C   0  0  0  0  0  0  0  0  0  0  0  0
    0.8146   -0.4877    5.6165 C   0  0  0  0  0  0  0  0  0  0  0  0
    1.2849   -1.1641    4.3140 C   0  0  0  0  0  0  0  0  0  0  0  0
    1.0048    1.8381    0.0023 H   0  0  0  0  0  0  0  0  0  0  0  0
   -0.5450    1.8219   -0.8730 H   0  0  0  0  0  0  0  0  0  0  0  0
   -0.5280    1.8123    0.9069 H   0  0  0  0  0  0  0  0  0  0  0  0
   -0.4693   -3.5871   -4.1498 H   0  0  0  0  0  0  0  0  0  0  0  0
   -0.4926   -1.8341   -3.8420 H   0  0  0  0  0  0  0  0  0  0  0  0
    1.5709   -0.5516   -3.8052 H   0  0  0  0  0  0  0  0  0  0  0  0
    3.8900   -0.3787   -4.6146 H   0  0  0  0  0  0  0  0  0  0  0  0
    5.0743   -2.3908   -5.3968 H   0  0  0  0  0  0  0  0  0  0  0  0
    3.9397   -4.5761   -5.3689 H   0  0  0  0  0  0  0  0  0  0  0  0
    1.6234   -4.7503   -4.5517 H   0  0  0  0  0  0  0  0  0  0  0  0
    0.5052   -5.4239   -3.2995 H   0  0  0  0  0  0  0  0  0  0  0  0
    0.6715   -6.2621   -1.7381 H   0  0  0  0  0  0  0  0  0  0  0  0
   -1.9918   -5.3274   -2.9070 H   0  0  0  0  0  0  0  0  0  0  0  0
   -1.0994   -6.6709   -0.3581 H   0  0  0  0  0  0  0  0  0  0  0  0
   -2.5373   -5.6456   -0.6600 H   0  0  0  0  0  0  0  0  0  0  0  0
   -2.8645   -8.3086   -0.3942 H   0  0  0  0  0  0  0  0  0  0  0  0
   -3.7432   -7.4537   -1.7048 H   0  0  0  0  0  0  0  0  0  0  0  0
   -1.1171   -9.0306   -1.8855 H   0  0  0  0  0  0  0  0  0  0  0  0
   -2.5636   -9.1599   -2.9347 H   0  0  0  0  0  0  0  0  0  0  0  0
   -2.0069   -7.2463   -4.1484 H   0  0  0  0  0  0  0  0  0  0  0  0
   -0.3532   -7.6220   -3.5870 H   0  0  0  0  0  0  0  0  0  0  0  0
   -0.8628   -3.1286    2.8055 H   0  0  0  0  0  0  0  0  0  0  0  0
    0.9316   -3.1303    2.7977 H   0  0  0  0  0  0  0  0  0  0  0  0
   -2.0325   -0.7888    3.8212 H   0  0  0  0  0  0  0  0  0  0  0  0
   -1.3662   -2.1478    4.7857 H   0  0  0  0  0  0  0  0  0  0  0  0
   -0.8170    0.8552    5.0865 H   0  0  0  0  0  0  0  0  0  0  0  0
   -1.2264   -0.3332    6.3628 H   0  0  0  0  0  0  0  0  0  0  0  0
    1.3737    0.4332    5.7821 H   0  0  0  0  0  0  0  0  0  0  0  0
    0.9516   -1.1650    6.4596 H   0  0  0  0  0  0  0  0  0  0  0  0
    1.6613   -2.1647    4.5266 H   0  0  0  0  0  0  0  0  0  0  0  0
    2.0619   -0.5642    3.8401 H   0  0  0  0  0  0  0  0  0  0  0  0
    0.0318    0.7659    2.6145 H   0  0  0  0  0  0  0  0  0  0  0  0
    0.0612   -4.7898    0.3546 H   0  0  0  0  0  0  0  0  0  0  0  0
  1  2  1  0  0  0  0
  1 32  1  0  0  0  0
  1 33  1  0  0  0  0
  1 34  1  0  0  0  0
  2 24  1  0  0  0  0
  2  3  1  0  0  0  0
  3  4  2  0  0  0  0
  3  5  1  0  0  0  0
  5  9  1  0  0  0  0
  5  6  2  0  0  0  0
  6  7  1  0  0  0  0
  6 23  1  0  0  0  0
  7  8  2  0  0  0  0
  7 64  1  0  0  0  0
  8  9  1  0  0  0  0
  8 17  1  0  0  0  0
  9 10  1  0  0  0  0
 10 11  1  0  0  0  0
 10 35  1  0  0  0  0
 10 36  1  0  0  0  0
 11 16  2  0  0  0  0
 11 12  1  0  0  0  0
 12 13  2  0  0  0  0
 12 37  1  0  0  0  0
 13 14  1  0  0  0  0
 13 38  1  0  0  0  0
 14 15  2  0  0  0  0
 14 39  1  0  0  0  0
 15 16  1  0  0  0  0
 15 40  1  0  0  0  0
 16 41  1  0  0  0  0
 17 18  1  0  0  0  0
 17 42  1  0  0  0  0
 17 43  1  0  0  0  0
 18 22  1  0  0  0  0
 18 19  1  0  0  0  0
 18 44  1  0  0  0  0
 19 20  1  0  0  0  0
 19 45  1  0  0  0  0
 19 46  1  0  0  0  0
 20 21  1  0  0  0  0
 20 47  1  0  0  0  0
 20 48  1  0  0  0  0
 21 22  1  0  0  0  0
 21 49  1  0  0  0  0
 21 50  1  0  0  0  0
 22 51  1  0  0  0  0
 22 52  1  0  0  0  0
 23 27  1  0  0  0  0
 23 24  1  0  0  0  0
 24 25  2  0  0  0  0
 25 26  1  0  0  0  0
 25 63  1  0  0  0  0
 26 31  1  0  0  0  0
 26 27  1  0  0  0  0
 26 28  1  0  0  0  0
 27 53  1  0  0  0  0
 27 54  1  0  0  0  0
 28 29  1  0  0  0  0
 28 55  1  0  0  0  0
 28 56  1  0  0  0  0
 29 30  1  0  0  0  0
 29 57  1  0  0  0  0
 29 58  1  0  0  0  0
 30 31  1  0  0  0  0
 30 59  1  0  0  0  0
 30 60  1  0  0  0  0
 31 61  1  0  0  0  0
 31 62  1  0  0  0  0
M  CHG  2   7   1  25   1
M  END
$$$$
CHEMBL139998
  -OEChem-07121202283D

 57 61  0     0  0  0  0  0  0999 V2000
    0.0057    1.4864    0.0073 C   0  0  0  0  0  0  0  0  0  0  0  0
    0.0165   -0.0435    0.0019 C   0  0  0  0  0  0  0  0  0  0  0  0
   -1.3612   -0.5416    0.0123 N   0  0  0  0  0  0  0  0  0  0  0  0
   -2.1070   -0.8128    1.1270 C   0  0  0  0  0  0  0  0  0  0  0  0
   -3.3569   -1.2641    0.6653 C   0  0  0  0  0  0  0  0  0  0  0  0
   -3.3145   -1.2468   -0.7415 C   0  0  0  0  0  0  0  0  0  0  0  0
   -2.1424   -0.8160   -1.1162 N   0  0  0  0  0  0  0  0  0  0  0  0
   -4.3581   -1.6279    1.6575 C   0  0  0  0  0  0  0  0  0  0  0  0
   -4.0072   -1.5034    3.0256 C   0  0  0  0  0  0  0  0  0  0  0  0
   -2.7258   -1.0401    3.3593 C   0  0  0  0  0  0  0  0  0  0  0  0
   -1.8565   -0.7241    2.4332 N   0  0  0  0  0  0  0  0  0  0  0  0
   -4.9794   -1.8568    3.9830 C   0  0  0  0  0  0  0  0  0  0  0  0
   -6.1580   -2.2823    3.5678 N   0  0  0  0  0  0  0  0  0  0  0  0
   -6.4727   -2.3939    2.3309 N   0  0  0  0  0  0  0  0  0  0  0  0
   -5.6457   -2.0935    1.3433 C   0  0  0  0  0  0  0  0  0  0  0  0
   -6.0433   -2.2348    0.0198 N   0  0  0  0  0  0  0  0  0  0  0  0
   -7.3437   -2.8318   -0.2945 C   0  0  0  0  0  0  0  0  0  0  0  0
   -7.5311   -2.8691   -1.7894 C   0  0  0  0  0  0  0  0  0  0  0  0
   -8.1188   -1.7987   -2.4382 C   0  0  0  0  0  0  0  0  0  0  0  0
   -8.2924   -1.8301   -3.8084 C   0  0  0  0  0  0  0  0  0  0  0  0
   -7.8763   -2.9366   -4.5341 C   0  0  0  0  0  0  0  0  0  0  0  0
   -7.2862   -4.0100   -3.8810 C   0  0  0  0  0  0  0  0  0  0  0  0
   -7.1101   -3.9711   -2.5102 C   0  0  0  0  0  0  0  0  0  0  0  0
   -6.7638   -5.3968   -4.7852 Cl  0  0  0  0  0  0  0  0  0  0  0  0
   -8.0465   -2.9699   -5.8822 O   0  0  0  0  0  0  0  0  0  0  0  0
   -8.6613   -1.8304   -6.4868 C   0  0  0  0  0  0  0  0  0  0  0  0
   -4.7004   -1.7589    5.3478 N   0  0  0  0  0  0  0  0  0  0  0  0
   -5.5822   -1.4143    6.3272 C   0  0  0  0  0  0  0  0  0  0  0  0
   -4.8939   -1.4441    7.5046 C   0  0  0  0  0  0  0  0  0  0  0  0
   -3.6148   -1.8035    7.2244 N   0  0  0  0  0  0  0  0  0  0  0  0
   -3.4984   -1.9962    5.9427 C   0  0  0  0  0  0  0  0  0  0  0  0
   -5.4397   -1.1412    8.8389 C   0  0  0  0  0  0  0  0  0  0  0  0
   -6.6088   -0.8292    8.9613 O   0  0  0  0  0  0  0  0  0  0  0  0
   -4.6434   -1.2098    9.9242 N   0  0  0  0  0  0  0  0  0  0  0  0
   -5.1862   -0.9085   11.2511 C   0  0  0  0  0  0  0  0  0  0  0  0
    1.0307    1.8570   -0.0004 H   0  0  0  0  0  0  0  0  0  0  0  0
   -0.5185    1.8492   -0.8768 H   0  0  0  0  0  0  0  0  0  0  0  0
   -0.5028    1.8430    0.9031 H   0  0  0  0  0  0  0  0  0  0  0  0
    0.5250   -0.4001   -0.8938 H   0  0  0  0  0  0  0  0  0  0  0  0
    0.5407   -0.4063    0.8860 H   0  0  0  0  0  0  0  0  0  0  0  0
   -4.1197   -1.5370   -1.4001 H   0  0  0  0  0  0  0  0  0  0  0  0
   -2.4514   -0.9426    4.3993 H   0  0  0  0  0  0  0  0  0  0  0  0
   -5.4600   -1.9382   -0.6962 H   0  0  0  0  0  0  0  0  0  0  0  0
   -7.3832   -3.8463    0.1020 H   0  0  0  0  0  0  0  0  0  0  0  0
   -8.1363   -2.2344    0.1562 H   0  0  0  0  0  0  0  0  0  0  0  0
   -8.4428   -0.9373   -1.8731 H   0  0  0  0  0  0  0  0  0  0  0  0
   -8.7522   -0.9939   -4.3141 H   0  0  0  0  0  0  0  0  0  0  0  0
   -6.6474   -4.8040   -2.0017 H   0  0  0  0  0  0  0  0  0  0  0  0
   -9.6584   -1.6911   -6.0691 H   0  0  0  0  0  0  0  0  0  0  0  0
   -8.0578   -0.9444   -6.2896 H   0  0  0  0  0  0  0  0  0  0  0  0
   -8.7368   -1.9865   -7.5630 H   0  0  0  0  0  0  0  0  0  0  0  0
   -6.6250   -1.1652    6.1967 H   0  0  0  0  0  0  0  0  0  0  0  0
   -2.5942   -2.2942    5.4329 H   0  0  0  0  0  0  0  0  0  0  0  0
   -3.7110   -1.4586    9.8266 H   0  0  0  0  0  0  0  0  0  0  0  0
   -5.9988   -1.5991   11.4767 H   0  0  0  0  0  0  0  0  0  0  0  0
   -4.3999   -1.0162   11.9983 H   0  0  0  0  0  0  0  0  0  0  0  0
   -5.5637    0.1139   11.2657 H   0  0  0  0  0  0  0  0  0  0  0  0
  1  2  1  0  0  0  0
  1 36  1  0  0  0  0
  1 37  1  0  0  0  0
  1 38  1  0  0  0  0
  2  3  1  0  0  0  0
  2 39  1  0  0  0  0
  2 40  1  0  0  0  0
  3  7  1  0  0  0  0
  3  4  1  0  0  0  0
  4 11  2  0  0  0  0
  4  5  1  0  0  0  0
  5  6  1  0  0  0  0
  5  8  2  0  0  0  0
  6  7  2  0  0  0  0
  6 41  1  0  0  0  0
  8 15  1  0  0  0  0
  8  9  1  0  0  0  0
  9 10  2  0  0  0  0
  9 12  1  0  0  0  0
 10 11  1  0  0  0  0
 10 42  1  0  0  0  0
 12 13  2  0  0  0  0
 12 27  1  0  0  0  0
 13 14  1  0  0  0  0
 14 15  2  0  0  0  0
 15 16  1  0  0  0  0
 16 17  1  0  0  0  0
 16 43  1  0  0  0  0
 17 18  1  0  0  0  0
 17 44  1  0  0  0  0
 17 45  1  0  0  0  0
 18 23  2  0  0  0  0
 18 19  1  0  0  0  0
 19 20  2  0  0  0  0
 19 46  1  0  0  0  0
 20 21  1  0  0  0  0
 20 47  1  0  0  0  0
 21 22  2  0  0  0  0
 21 25  1  0  0  0  0
 22 23  1  0  0  0  0
 22 24  1  0  0  0  0
 23 48  1  0  0  0  0
 25 26  1  0  0  0  0
 26 49  1  0  0  0  0
 26 50  1  0  0  0  0
 26 51  1  0  0  0  0
 27 31  1  0  0  0  0
 27 28  1  0  0  0  0
 28 29  2  0  0  0  0
 28 52  1  0  0  0  0
 29 30  1  0  0  0  0
 29 32  1  0  0  0  0
 30 31  2  0  0  0  0
 31 53  1  0  0  0  0
 32 33  2  0  0  0  0
 32 34  1  0  0  0  0
 34 35  1  0  0  0  0
 34 54  1  0  0  0  0
 35 55  1  0  0  0  0
 35 56  1  0  0  0  0
 35 57  1  0  0  0  0
M  END
$$$$
CHEMBL77893
  -OEChem-07121202283D

 78 82  0     0  0  0  0  0  0999 V2000
    0.1352    0.7022    0.9626 C   0  0  0  0  0  0  0  0  0  0  0  0
    0.0231   -0.7630    0.6283 C   0  0  0  0  0  0  0  0  0  0  0  0
    0.0400   -1.1652   -0.6940 C   0  0  0  0  0  0  0  0  0  0  0  0
   -0.0638   -2.5154   -0.9907 C   0  0  0  0  0  0  0  0  0  0  0  0
   -0.1812   -3.4146    0.0584 C   0  0  0  0  0  0  0  0  0  0  0  0
   -0.1908   -2.9384    1.3555 C   0  0  0  0  0  0  0  0  0  0  0  0
   -0.0847   -1.6469    1.6008 N   0  0  0  0  0  0  0  0  0  0  0  0
   -0.0498   -2.9945   -2.4195 C   0  0  0  0  0  0  0  0  0  0  0  0
    1.3328   -3.0587   -2.8995 N   0  0  0  0  0  0  0  0  0  0  0  0
    1.8457   -1.9849   -3.5950 C   0  0  0  0  0  0  0  0  0  0  0  0
    3.1421   -1.9848   -4.0735 C   0  0  0  0  0  0  0  0  0  0  0  0
    3.9872   -3.1617   -3.8306 C   0  0  0  0  0  0  0  0  0  0  0  0
    5.3058   -3.2470   -4.2765 C   0  0  0  0  0  0  0  0  0  0  0  0
    6.0244   -4.3928   -4.0010 C   0  0  0  0  0  0  0  0  0  0  0  0
    5.4925   -5.3995   -3.3307 N   0  0  0  0  0  0  0  0  0  0  0  0
    4.2460   -5.3767   -2.8820 C   0  0  0  0  0  0  0  0  0  0  0  0
    3.4421   -4.2519   -3.1155 C   0  0  0  0  0  0  0  0  0  0  0  0
    2.0597   -4.1628   -2.6409 C   0  0  0  0  0  0  0  0  0  0  0  0
    1.5673   -5.0860   -2.0178 O   0  0  0  0  0  0  0  0  0  0  0  0
    3.7394   -6.4589   -2.1859 N   0  0  0  0  0  0  0  0  0  0  0  0
    2.9878   -7.5180   -2.8769 C   0  0  0  0  0  0  0  0  0  0  0  0
    3.5813   -8.8735   -2.4790 C   0  0  0  0  0  0  0  0  0  0  0  0
    3.5897   -8.9924   -1.0155 N   0  3  0  0  0  0  0  0  0  0  0  0
    4.4860   -7.9835   -0.4368 C   0  0  0  0  0  0  0  0  0  0  0  0
    3.9421   -6.5868   -0.7345 C   0  0  0  0  0  0  0  0  0  0  0  0
    4.0558  -10.3333   -0.6376 C   0  0  0  0  0  0  0  0  0  0  0  0
    3.6690   -0.8215   -4.8170 C   0  0  0  0  0  0  0  0  0  0  0  0
    4.0152   -0.9505   -6.1638 C   0  0  0  0  0  0  0  0  0  0  0  0
    4.5082    0.1397   -6.8573 C   0  0  0  0  0  0  0  0  0  0  0  0
    4.6598    1.3647   -6.2140 C   0  0  0  0  0  0  0  0  0  0  0  0
    4.3154    1.4959   -4.8718 C   0  0  0  0  0  0  0  0  0  0  0  0
    3.8162    0.4103   -4.1755 C   0  0  0  0  0  0  0  0  0  0  0  0
    4.4647    2.6941   -4.2461 O   0  0  0  0  0  0  0  0  0  0  0  0
    4.0917    2.7573   -2.8681 C   0  0  0  0  0  0  0  0  0  0  0  0
    5.1455    2.4350   -6.8980 O   0  0  0  0  0  0  0  0  0  0  0  0
    4.1924    3.2687   -7.5602 C   0  0  0  0  0  0  0  0  0  0  0  0
    4.8455    0.0147   -8.1688 O   0  0  0  0  0  0  0  0  0  0  0  0
    4.6647   -1.2711   -8.7655 C   0  0  0  0  0  0  0  0  0  0  0  0
    0.9932   -0.8121   -3.8339 C   0  0  0  0  0  0  0  0  0  0  0  0
    1.3798    0.0825   -4.5606 O   0  0  0  0  0  0  0  0  0  0  0  0
   -0.2182   -0.7282   -3.2468 O   0  0  0  0  0  0  0  0  0  0  0  0
   -0.9936    0.4399   -3.5234 C   0  0  0  0  0  0  0  0  0  0  0  0
    1.1856    0.9691    1.0781 H   0  0  0  0  0  0  0  0  0  0  0  0
   -0.3035    1.2929    0.1585 H   0  0  0  0  0  0  0  0  0  0  0  0
   -0.3955    0.9042    1.8930 H   0  0  0  0  0  0  0  0  0  0  0  0
    0.1325   -0.4368   -1.4860 H   0  0  0  0  0  0  0  0  0  0  0  0
   -0.2645   -4.4737   -0.1359 H   0  0  0  0  0  0  0  0  0  0  0  0
   -0.2820   -3.6322    2.1781 H   0  0  0  0  0  0  0  0  0  0  0  0
   -0.5000   -3.9857   -2.4748 H   0  0  0  0  0  0  0  0  0  0  0  0
   -0.6182   -2.3021   -3.0405 H   0  0  0  0  0  0  0  0  0  0  0  0
    5.7554   -2.4333   -4.8264 H   0  0  0  0  0  0  0  0  0  0  0  0
    7.0464   -4.4685   -4.3421 H   0  0  0  0  0  0  0  0  0  0  0  0
    1.9396   -7.4760   -2.5808 H   0  0  0  0  0  0  0  0  0  0  0  0
    3.0725   -7.3834   -3.9552 H   0  0  0  0  0  0  0  0  0  0  0  0
    2.9768   -9.6741   -2.9052 H   0  0  0  0  0  0  0  0  0  0  0  0
    4.6014   -8.9482   -2.8555 H   0  0  0  0  0  0  0  0  0  0  0  0
    4.5482   -8.1284    0.6417 H   0  0  0  0  0  0  0  0  0  0  0  0
    5.4788   -8.0852   -0.8752 H   0  0  0  0  0  0  0  0  0  0  0  0
    4.6576   -5.8369   -0.3970 H   0  0  0  0  0  0  0  0  0  0  0  0
    2.9920   -6.4492   -0.2184 H   0  0  0  0  0  0  0  0  0  0  0  0
    5.0641  -10.4890   -1.0213 H   0  0  0  0  0  0  0  0  0  0  0  0
    4.0625  -10.4229    0.4487 H   0  0  0  0  0  0  0  0  0  0  0  0
    3.3866  -11.0830   -1.0599 H   0  0  0  0  0  0  0  0  0  0  0  0
    3.8985   -1.9010   -6.6631 H   0  0  0  0  0  0  0  0  0  0  0  0
    3.5450    0.5137   -3.1352 H   0  0  0  0  0  0  0  0  0  0  0  0
    3.0369    2.5026   -2.7652 H   0  0  0  0  0  0  0  0  0  0  0  0
    4.6936    2.0512   -2.2961 H   0  0  0  0  0  0  0  0  0  0  0  0
    4.2602    3.7664   -2.4920 H   0  0  0  0  0  0  0  0  0  0  0  0
    3.6407    2.6791   -8.2924 H   0  0  0  0  0  0  0  0  0  0  0  0
    3.4982    3.6799   -6.8274 H   0  0  0  0  0  0  0  0  0  0  0  0
    4.7113    4.0829   -8.0660 H   0  0  0  0  0  0  0  0  0  0  0  0
    5.2709   -2.0059   -8.2358 H   0  0  0  0  0  0  0  0  0  0  0  0
    3.6141   -1.5552   -8.7049 H   0  0  0  0  0  0  0  0  0  0  0  0
    4.9711   -1.2329   -9.8109 H   0  0  0  0  0  0  0  0  0  0  0  0
   -0.4474    1.3245   -3.1958 H   0  0  0  0  0  0  0  0  0  0  0  0
   -1.1822    0.5054   -4.5949 H   0  0  0  0  0  0  0  0  0  0  0  0
   -1.9425    0.3807   -2.9904 H   0  0  0  0  0  0  0  0  0  0  0  0
    2.6549   -8.8521   -0.6625 H   0  0  0  0  0  0  0  0  0  0  0  0
  1  2  1  0  0  0  0
  1 43  1  0  0  0  0
  1 44  1  0  0  0  0
  1 45  1  0  0  0  0
  2  7  2  0  0  0  0
  2  3  1  0  0  0  0
  3  4  2  0  0  0  0
  3 46  1  0  0  0  0
  4  5  1  0  0  0  0
  4  8  1  0  0  0  0
  5  6  2  0  0  0  0
  5 47  1  0  0  0  0
  6  7  1  0  0  0  0
  6 48  1  0  0  0  0
  8  9  1  0  0  0  0
  8 49  1  0  0  0  0
  8 50  1  0  0  0  0
  9 18  1  0  0  0  0
  9 10  1  0  0  0  0
 10 11  2  0  0  0  0
 10 39  1  0  0  0  0
 11 12  1  0  0  0  0
 11 27  1  0  0  0  0
 12 17  2  0  0  0  0
 12 13  1  0  0  0  0
 13 14  2  0  0  0  0
 13 51  1  0  0  0  0
 14 15  1  0  0  0  0
 14 52  1  0  0  0  0
 15 16  2  0  0  0  0
 16 17  1  0  0  0  0
 16 20  1  0  0  0  0
 17 18  1  0  0  0  0
 18 19  2  0  0  0  0
 20 25  1  0  0  0  0
 20 21  1  0  0  0  0
 21 22  1  0  0  0  0
 21 53  1  0  0  0  0
 21 54  1  0  0  0  0
 22 23  1  0  0  0  0
 22 55  1  0  0  0  0
 22 56  1  0  0  0  0
 23 24  1  0  0  0  0
 23 26  1  0  0  0  0
 23 78  1  0  0  0  0
 24 25  1  0  0  0  0
 24 57  1  0  0  0  0
 24 58  1  0  0  0  0
 25 59  1  0  0  0  0
 25 60  1  0  0  0  0
 26 61  1  0  0  0  0
 26 62  1  0  0  0  0
 26 63  1  0  0  0  0
 27 32  2  0  0  0  0
 27 28  1  0  0  0  0
 28 29  2  0  0  0  0
 28 64  1  0  0  0  0
 29 30  1  0  0  0  0
 29 37  1  0  0  0  0
 30 31  2  0  0  0  0
 30 35  1  0  0  0  0
 31 32  1  0  0  0  0
 31 33  1  0  0  0  0
 32 65  1  0  0  0  0
 33 34  1  0  0  0  0
 34 66  1  0  0  0  0
 34 67  1  0  0  0  0
 34 68  1  0  0  0  0
 35 36  1  0  0  0  0
 36 69  1  0  0  0  0
 36 70  1  0  0  0  0
 36 71  1  0  0  0  0
 37 38  1  0  0  0  0
 38 72  1  0  0  0  0
 38 73  1  0  0  0  0
 38 74  1  0  0  0  0
 39 40  2  0  0  0  0
 39 41  1  0  0  0  0
 41 42  1  0  0  0  0
 42 75  1  0  0  0  0
 42 76  1  0  0  0  0
 42 77  1  0  0  0  0
M  CHG  1  23   1
M  END
$$$$
CHEMBL77893
  -OEChem-07121202283D

 79 83  0     0  0  0  0  0  0999 V2000
    0.1352    0.7022    0.9626 C   0  0  0  0  0  0  0  0  0  0  0  0
    0.0231   -0.7630    0.6283 C   0  0  0  0  0  0  0  0  0  0  0  0
    0.0400   -1.1652   -0.6940 C   0  0  0  0  0  0  0  0  0  0  0  0
   -0.0638   -2.5154   -0.9907 C   0  0  0  0  0  0  0  0  0  0  0  0
   -0.1812   -3.4146    0.0584 C   0  0  0  0  0  0  0  0  0  0  0  0
   -0.1908   -2.9384    1.3555 C   0  0  0  0  0  0  0  0  0  0  0  0
   -0.0847   -1.6469    1.6008 N   0  3  0  0  0  0  0  0  0  0  0  0
   -0.0498   -2.9945   -2.4195 C   0  0  0  0  0  0  0  0  0  0  0  0
    1.3328   -3.0587   -2.8995 N   0  0  0  0  0  0  0  0  0  0  0  0
    1.8457   -1.9849   -3.5950 C   0  0  0  0  0  0  0  0  0  0  0  0
    3.1421   -1.9848   -4.0735 C   0  0  0  0  0  0  0  0  0  0  0  0
    3.9872   -3.1617   -3.8306 C   0  0  0  0  0  0  0  0  0  0  0  0
    5.3058   -3.2470   -4.2765 C   0  0  0  0  0  0  0  0  0  0  0  0
    6.0244   -4.3928   -4.0010 C   0  0  0  0  0  0  0  0  0  0  0  0
    5.4925   -5.3995   -3.3307 N   0  0  0  0  0  0  0  0  0  0  0  0
    4.2460   -5.3767   -2.8820 C   0  0  0  0  0  0  0  0  0  0  0  0
    3.4421   -4.2519   -3.1155 C   0  0  0  0  0  0  0  0  0  0  0  0
    2.0597   -4.1628   -2.6409 C   0  0  0  0  0  0  0  0  0  0  0  0
    1.5673   -5.0860   -2.0178 O   0  0  0  0  0  0  0  0  0  0  0  0
    3.7394   -6.4589   -2.1859 N   0  0  0  0  0  0  0  0  0  0  0  0
    2.9878   -7.5180   -2.8769 C   0  0  0  0  0  0  0  0  0  0  0  0
    3.5813   -8.8735   -2.4790 C   0  0  0  0  0  0  0  0  0  0  0  0
    3.5897   -8.9924   -1.0155 N   0  3  0  0  0  0  0  0  0  0  0  0
    4.4860   -7.9835   -0.4368 C   0  0  0  0  0  0  0  0  0  0  0  0
    3.9421   -6.5868   -0.7345 C   0  0  0  0  0  0  0  0  0  0  0  0
    4.0558  -10.3333   -0.6376 C   0  0  0  0  0  0  0  0  0  0  0  0
    3.6690   -0.8215   -4.8170 C   0  0  0  0  0  0  0  0  0  0  0  0
    4.0152   -0.9505   -6.1638 C   0  0  0  0  0  0  0  0  0  0  0  0
    4.5082    0.1397   -6.8573 C   0  0  0  0  0  0  0  0  0  0  0  0
    4.6598    1.3647   -6.2140 C   0  0  0  0  0  0  0  0  0  0  0  0
    4.3154    1.4959   -4.8718 C   0  0  0  0  0  0  0  0  0  0  0  0
    3.8162    0.4103   -4.1755 C   0  0  0  0  0  0  0  0  0  0  0  0
    4.4647    2.6941   -4.2461 O   0  0  0  0  0  0  0  0  0  0  0  0
    4.0917    2.7573   -2.8681 C   0  0  0  0  0  0  0  0  0  0  0  0
    5.1455    2.4350   -6.8980 O   0  0  0  0  0  0  0  0  0  0  0  0
    4.1924    3.2687   -7.5602 C   0  0  0  0  0  0  0  0  0  0  0  0
    4.8455    0.0147   -8.1688 O   0  0  0  0  0  0  0  0  0  0  0  0
    4.6647   -1.2711   -8.7655 C   0  0  0  0  0  0  0  0  0  0  0  0
    0.9932   -0.8121   -3.8339 C   0  0  0  0  0  0  0  0  0  0  0  0
    1.3798    0.0825   -4.5606 O   0  0  0  0  0  0  0  0  0  0  0  0
   -0.2182   -0.7282   -3.2468 O   0  0  0  0  0  0  0  0  0  0  0  0
   -0.9936    0.4399   -3.5234 C   0  0  0  0  0  0  0  0  0  0  0  0
    1.1856    0.9691    1.0781 H   0  0  0  0  0  0  0  0  0  0  0  0
   -0.3035    1.2929    0.1585 H   0  0  0  0  0  0  0  0  0  0  0  0
   -0.3955    0.9042    1.8930 H   0  0  0  0  0  0  0  0  0  0  0  0
    0.1325   -0.4368   -1.4860 H   0  0  0  0  0  0  0  0  0  0  0  0
   -0.2645   -4.4737   -0.1359 H   0  0  0  0  0  0  0  0  0  0  0  0
   -0.2820   -3.6322    2.1781 H   0  0  0  0  0  0  0  0  0  0  0  0
   -0.5000   -3.9857   -2.4748 H   0  0  0  0  0  0  0  0  0  0  0  0
   -0.6182   -2.3021   -3.0405 H   0  0  0  0  0  0  0  0  0  0  0  0
    5.7554   -2.4333   -4.8264 H   0  0  0  0  0  0  0  0  0  0  0  0
    7.0464   -4.4685   -4.3421 H   0  0  0  0  0  0  0  0  0  0  0  0
    1.9396   -7.4760   -2.5808 H   0  0  0  0  0  0  0  0  0  0  0  0
    3.0725   -7.3834   -3.9552 H   0  0  0  0  0  0  0  0  0  0  0  0
    2.9768   -9.6741   -2.9052 H   0  0  0  0  0  0  0  0  0  0  0  0
    4.6014   -8.9482   -2.8555 H   0  0  0  0  0  0  0  0  0  0  0  0
    4.5482   -8.1284    0.6417 H   0  0  0  0  0  0  0  0  0  0  0  0
    5.4788   -8.0852   -0.8752 H   0  0  0  0  0  0  0  0  0  0  0  0
    4.6576   -5.8369   -0.3970 H   0  0  0  0  0  0  0  0  0  0  0  0
    2.9920   -6.4492   -0.2184 H   0  0  0  0  0  0  0  0  0  0  0  0
    5.0641  -10.4890   -1.0213 H   0  0  0  0  0  0  0  0  0  0  0  0
    4.0625  -10.4229    0.4487 H   0  0  0  0  0  0  0  0  0  0  0  0
    3.3866  -11.0830   -1.0599 H   0  0  0  0  0  0  0  0  0  0  0  0
    3.8985   -1.9010   -6.6631 H   0  0  0  0  0  0  0  0  0  0  0  0
    3.5450    0.5137   -3.1352 H   0  0  0  0  0  0  0  0  0  0  0  0
    4.2602    3.7664   -2.4920 H   0  0  0  0  0  0  0  0  0  0  0  0
    3.0369    2.5026   -2.7652 H   0  0  0  0  0  0  0  0  0  0  0  0
    4.6936    2.0512   -2.2961 H   0  0  0  0  0  0  0  0  0  0  0  0
    4.7113    4.0829   -8.0660 H   0  0  0  0  0  0  0  0  0  0  0  0
    3.6407    2.6791   -8.2924 H   0  0  0  0  0  0  0  0  0  0  0  0
    3.4982    3.6799   -6.8274 H   0  0  0  0  0  0  0  0  0  0  0  0
    5.2709   -2.0059   -8.2358 H   0  0  0  0  0  0  0  0  0  0  0  0
    3.6141   -1.5552   -8.7049 H   0  0  0  0  0  0  0  0  0  0  0  0
    4.9711   -1.2329   -9.8109 H   0  0  0  0  0  0  0  0  0  0  0  0
   -0.4474    1.3245   -3.1958 H   0  0  0  0  0  0  0  0  0  0  0  0
   -1.1822    0.5054   -4.5949 H   0  0  0  0  0  0  0  0  0  0  0  0
   -1.9425    0.3807   -2.9904 H   0  0  0  0  0  0  0  0  0  0  0  0
    2.6549   -8.8521   -0.6625 H   0  0  0  0  0  0  0  0  0  0  0  0
   -0.0901   -1.3388    2.5206 H   0  0  0  0  0  0  0  0  0  0  0  0
  1  2  1  0  0  0  0
  1 43  1  0  0  0  0
  1 44  1  0  0  0  0
  1 45  1  0  0  0  0
  2  7  2  0  0  0  0
  2  3  1  0  0  0  0
  3  4  2  0  0  0  0
  3 46  1  0  0  0  0
  4  5  1  0  0  0  0
  4  8  1  0  0  0  0
  5  6  2  0  0  0  0
  5 47  1  0  0  0  0
  6  7  1  0  0  0  0
  6 48  1  0  0  0  0
  7 79  1  0  0  0  0
  8  9  1  0  0  0  0
  8 49  1  0  0  0  0
  8 50  1  0  0  0  0
  9 18  1  0  0  0  0
  9 10  1  0  0  0  0
 10 11  2  0  0  0  0
 10 39  1  0  0  0  0
 11 12  1  0  0  0  0
 11 27  1  0  0  0  0
 12 17  2  0  0  0  0
 12 13  1  0  0  0  0
 13 14  2  0  0  0  0
 13 51  1  0  0  0  0
 14 15  1  0  0  0  0
 14 52  1  0  0  0  0
 15 16  2  0  0  0  0
 16 17  1  0  0  0  0
 16 20  1  0  0  0  0
 17 18  1  0  0  0  0
 18 19  2  0  0  0  0
 20 25  1  0  0  0  0
 20 21  1  0  0  0  0
 21 22  1  0  0  0  0
 21 53  1  0  0  0  0
 21 54  1  0  0  0  0
 22 23  1  0  0  0  0
 22 55  1  0  0  0  0
 22 56  1  0  0  0  0
 23 24  1  0  0  0  0
 23 26  1  0  0  0  0
 23 78  1  0  0  0  0
 24 25  1  0  0  0  0
 24 57  1  0  0  0  0
 24 58  1  0  0  0  0
 25 59  1  0  0  0  0
 25 60  1  0  0  0  0
 26 61  1  0  0  0  0
 26 62  1  0  0  0  0
 26 63  1  0  0  0  0
 27 32  2  0  0  0  0
 27 28  1  0  0  0  0
 28 29  2  0  0  0  0
 28 64  1  0  0  0  0
 29 30  1  0  0  0  0
 29 37  1  0  0  0  0
 30 31  2  0  0  0  0
 30 35  1  0  0  0  0
 31 32  1  0  0  0  0
 31 33  1  0  0  0  0
 32 65  1  0  0  0  0
 33 34  1  0  0  0  0
 34 66  1  0  0  0  0
 34 67  1  0  0  0  0
 34 68  1  0  0  0  0
 35 36  1  0  0  0  0
 36 69  1  0  0  0  0
 36 70  1  0  0  0  0
 36 71  1  0  0  0  0
 37 38  1  0  0  0  0
 38 72  1  0  0  0  0
 38 73  1  0  0  0  0
 38 74  1  0  0  0  0
 39 40  2  0  0  0  0
 39 41  1  0  0  0  0
 41 42  1  0  0  0  0
 42 75  1  0  0  0  0
 42 76  1  0  0  0  0
 42 77  1  0  0  0  0
M  CHG  2   7   1  23   1
M  END
$$$$
CHEMBL560516
  -OEChem-07121202283D

 67 70  0     0  0  0  0  0  0999 V2000
   -0.0187    1.5258    0.0104 C   0  0  0  0  0  0  0  0  0  0  0  0
    0.0021   -0.0041    0.0020 C   0  0  0  0  0  0  0  0  0  0  0  0
    0.7182   -0.4975   -1.2568 C   0  0  0  0  0  0  0  0  0  0  0  0
    0.7376   -1.9263   -1.2646 O   0  0  0  0  0  0  0  0  0  0  0  0
    1.3873   -2.4925   -2.4045 C   0  0  0  0  0  0  0  0  0  0  0  0
    1.3486   -4.0190   -2.3077 C   0  0  0  0  0  0  0  0  0  0  0  0
   -0.0404   -4.4782   -2.3855 N   0  0  0  0  0  0  0  0  0  0  0  0
   -0.7996   -4.6150   -1.2365 C   0  0  0  0  0  0  0  0  0  0  0  0
   -0.2478   -4.3173    0.0023 C   0  0  0  0  0  0  0  0  0  0  0  0
   -1.0167   -4.4568    1.1519 C   0  0  0  0  0  0  0  0  0  0  0  0
   -2.3425   -4.8957    1.0629 C   0  0  0  0  0  0  0  0  0  0  0  0
   -2.8932   -5.1903   -0.1474 C   0  0  0  0  0  0  0  0  0  0  0  0
   -2.1332   -5.0558   -1.3201 C   0  0  0  0  0  0  0  0  0  0  0  0
   -2.6856   -5.3489   -2.5149 N   0  0  0  0  0  0  0  0  0  0  0  0
   -1.9990   -5.2321   -3.6230 C   0  0  0  0  0  0  0  0  0  0  0  0
   -0.5999   -4.7686   -3.5802 C   0  0  0  0  0  0  0  0  0  0  0  0
    0.0433   -4.6528   -4.6071 O   0  0  0  0  0  0  0  0  0  0  0  0
   -2.5883   -5.5395   -4.8368 N   0  0  0  0  0  0  0  0  0  0  0  0
   -3.9799   -5.9953   -4.8808 C   0  0  0  0  0  0  0  0  0  0  0  0
   -4.3826   -6.2648   -6.3321 C   0  0  0  0  0  0  0  0  0  0  0  0
   -5.7780   -6.7219   -6.3763 N   0  0  0  0  0  0  0  0  0  0  0  0
   -5.9231   -8.0345   -5.7304 C   0  0  0  0  0  0  0  0  0  0  0  0
   -7.3981   -8.4445   -5.7458 C   0  0  0  0  0  0  0  0  0  0  0  0
   -7.8722   -8.4496   -7.0950 O   0  0  0  0  0  0  0  0  0  0  0  0
   -7.7465   -7.1866   -7.7542 C   0  0  0  0  0  0  0  0  0  0  0  0
   -6.2751   -6.7639   -7.7592 C   0  0  0  0  0  0  0  0  0  0  0  0
   -0.4303   -4.1402    2.4762 C   0  0  0  0  0  0  0  0  0  0  0  0
   -1.1919   -4.2820    3.6422 C   0  0  0  0  0  0  0  0  0  0  0  0
   -0.6020   -3.9753    4.8529 C   0  0  0  0  0  0  0  0  0  0  0  0
    0.7181   -3.5394    4.8741 C   0  0  0  0  0  0  0  0  0  0  0  0
    1.4111   -3.4159    3.7539 N   0  0  0  0  0  0  0  0  0  0  0  0
    0.8878   -3.7030    2.5788 C   0  0  0  0  0  0  0  0  0  0  0  0
    1.3034   -3.2361    6.0596 O   0  0  0  0  0  0  0  0  0  0  0  0
    2.6615   -2.7936    6.0181 C   0  0  0  0  0  0  0  0  0  0  0  0
    1.0039    1.9031    0.0027 H   0  0  0  0  0  0  0  0  0  0  0  0
   -0.5459    1.8868   -0.8726 H   0  0  0  0  0  0  0  0  0  0  0  0
   -0.5289    1.8773    0.9072 H   0  0  0  0  0  0  0  0  0  0  0  0
    0.5293   -0.3651    0.8851 H   0  0  0  0  0  0  0  0  0  0  0  0
   -1.0205   -0.3814    0.0098 H   0  0  0  0  0  0  0  0  0  0  0  0
    0.1910   -0.1364   -2.1398 H   0  0  0  0  0  0  0  0  0  0  0  0
    1.7408   -0.1202   -1.2645 H   0  0  0  0  0  0  0  0  0  0  0  0
    0.8740   -2.1729   -3.3114 H   0  0  0  0  0  0  0  0  0  0  0  0
    2.4238   -2.1566   -2.4361 H   0  0  0  0  0  0  0  0  0  0  0  0
    1.9203   -4.4498   -3.1297 H   0  0  0  0  0  0  0  0  0  0  0  0
    1.7828   -4.3340   -1.3589 H   0  0  0  0  0  0  0  0  0  0  0  0
    0.7754   -3.9788    0.0725 H   0  0  0  0  0  0  0  0  0  0  0  0
   -2.9333   -5.0019    1.9607 H   0  0  0  0  0  0  0  0  0  0  0  0
   -3.9173   -5.5282   -0.2052 H   0  0  0  0  0  0  0  0  0  0  0  0
   -2.0800   -5.4532   -5.6584 H   0  0  0  0  0  0  0  0  0  0  0  0
   -4.0806   -6.9119   -4.2996 H   0  0  0  0  0  0  0  0  0  0  0  0
   -4.6277   -5.2258   -4.4610 H   0  0  0  0  0  0  0  0  0  0  0  0
   -4.2819   -5.3482   -6.9133 H   0  0  0  0  0  0  0  0  0  0  0  0
   -3.7348   -7.0343   -6.7520 H   0  0  0  0  0  0  0  0  0  0  0  0
   -5.3341   -8.7741   -6.2728 H   0  0  0  0  0  0  0  0  0  0  0  0
   -5.5729   -7.9739   -4.7000 H   0  0  0  0  0  0  0  0  0  0  0  0
   -7.5030   -9.4422   -5.3194 H   0  0  0  0  0  0  0  0  0  0  0  0
   -7.9795   -7.7339   -5.1583 H   0  0  0  0  0  0  0  0  0  0  0  0
   -8.1034   -7.2745   -8.7804 H   0  0  0  0  0  0  0  0  0  0  0  0
   -8.3381   -6.4395   -7.2251 H   0  0  0  0  0  0  0  0  0  0  0  0
   -6.1818   -5.7757   -8.2097 H   0  0  0  0  0  0  0  0  0  0  0  0
   -5.6917   -7.4832   -8.3339 H   0  0  0  0  0  0  0  0  0  0  0  0
   -2.2158   -4.6224    3.5962 H   0  0  0  0  0  0  0  0  0  0  0  0
   -1.1598   -4.0727    5.7725 H   0  0  0  0  0  0  0  0  0  0  0  0
    1.4859   -3.5939    1.6862 H   0  0  0  0  0  0  0  0  0  0  0  0
    3.0069   -2.5853    7.0308 H   0  0  0  0  0  0  0  0  0  0  0  0
    3.2837   -3.5711    5.5748 H   0  0  0  0  0  0  0  0  0  0  0  0
    2.7300   -1.8867    5.4172 H   0  0  0  0  0  0  0  0  0  0  0  0
  1  2  1  0  0  0  0
  1 35  1  0  0  0  0
  1 36  1  0  0  0  0
  1 37  1  0  0  0  0
  2  3  1  0  0  0  0
  2 38  1  0  0  0  0
  2 39  1  0  0  0  0
  3  4  1  0  0  0  0
  3 40  1  0  0  0  0
  3 41  1  0  0  0  0
  4  5  1  0  0  0  0
  5  6  1  0  0  0  0
  5 42  1  0  0  0  0
  5 43  1  0  0  0  0
  6  7  1  0  0  0  0
  6 44  1  0  0  0  0
  6 45  1  0  0  0  0
  7 16  1  0  0  0  0
  7  8  1  0  0  0  0
  8 13  2  0  0  0  0
  8  9  1  0  0  0  0
  9 10  2  0  0  0  0
  9 46  1  0  0  0  0
 10 11  1  0  0  0  0
 10 27  1  0  0  0  0
 11 12  2  0  0  0  0
 11 47  1  0  0  0  0
 12 13  1  0  0  0  0
 12 48  1  0  0  0  0
 13 14  1  0  0  0  0
 14 15  2  0  0  0  0
 15 16  1  0  0  0  0
 15 18  1  0  0  0  0
 16 17  2  0  0  0  0
 18 19  1  0  0  0  0
 18 49  1  0  0  0  0
 19 20  1  0  0  0  0
 19 50  1  0  0  0  0
 19 51  1  0  0  0  0
 20 21  1  0  0  0  0
 20 52  1  0  0  0  0
 20 53  1  0  0  0  0
 21 26  1  0  0  0  0
 21 22  1  0  0  0  0
 22 23  1  0  0  0  0
 22 54  1  0  0  0  0
 22 55  1  0  0  0  0
 23 24  1  0  0  0  0
 23 56  1  0  0  0  0
 23 57  1  0  0  0  0
 24 25  1  0  0  0  0
 25 26  1  0  0  0  0
 25 58  1  0  0  0  0
 25 59  1  0  0  0  0
 26 60  1  0  0  0  0
 26 61  1  0  0  0  0
 27 32  2  0  0  0  0
 27 28  1  0  0  0  0
 28 29  2  0  0  0  0
 28 62  1  0  0  0  0
 29 30  1  0  0  0  0
 29 63  1  0  0  0  0
 30 31  2  0  0  0  0
 30 33  1  0  0  0  0
 31 32  1  0  0  0  0
 32 64  1  0  0  0  0
 33 34  1  0  0  0  0
 34 65  1  0  0  0  0
 34 66  1  0  0  0  0
 34 67  1  0  0  0  0
M  END
$$$$
CHEMBL560516
  -OEChem-07121202283D

 68 71  0     0  0  0  0  0  0999 V2000
   -0.0187    1.5258    0.0104 C   0  0  0  0  0  0  0  0  0  0  0  0
    0.0021   -0.0041    0.0020 C   0  0  0  0  0  0  0  0  0  0  0  0
    0.7182   -0.4975   -1.2568 C   0  0  0  0  0  0  0  0  0  0  0  0
    0.7376   -1.9263   -1.2646 O   0  0  0  0  0  0  0  0  0  0  0  0
    1.3873   -2.4925   -2.4045 C   0  0  0  0  0  0  0  0  0  0  0  0
    1.3486   -4.0190   -2.3077 C   0  0  0  0  0  0  0  0  0  0  0  0
   -0.0404   -4.4782   -2.3855 N   0  0  0  0  0  0  0  0  0  0  0  0
   -0.7996   -4.6150   -1.2365 C   0  0  0  0  0  0  0  0  0  0  0  0
   -0.2478   -4.3173    0.0023 C   0  0  0  0  0  0  0  0  0  0  0  0
   -1.0167   -4.4568    1.1519 C   0  0  0  0  0  0  0  0  0  0  0  0
   -2.3425   -4.8957    1.0629 C   0  0  0  0  0  0  0  0  0  0  0  0
   -2.8932   -5.1903   -0.1474 C   0  0  0  0  0  0  0  0  0  0  0  0
   -2.1332   -5.0558   -1.3201 C   0  0  0  0  0  0  0  0  0  0  0  0
   -2.6856   -5.3489   -2.5149 N   0  0  0  0  0  0  0  0  0  0  0  0
   -1.9990   -5.2321   -3.6230 C   0  0  0  0  0  0  0  0  0  0  0  0
   -0.5999   -4.7686   -3.5802 C   0  0  0  0  0  0  0  0  0  0  0  0
    0.0433   -4.6528   -4.6071 O   0  0  0  0  0  0  0  0  0  0  0  0
   -2.5883   -5.5395   -4.8368 N   0  0  0  0  0  0  0  0  0  0  0  0
   -3.9799   -5.9953   -4.8808 C   0  0  0  0  0  0  0  0  0  0  0  0
   -4.3826   -6.2648   -6.3321 C   0  0  0  0  0  0  0  0  0  0  0  0
   -5.7780   -6.7219   -6.3763 N   0  3  0  0  0  0  0  0  0  0  0  0
   -5.8905   -8.0191   -5.6954 C   0  0  0  0  0  0  0  0  0  0  0  0
   -7.3452   -8.4930   -5.7426 C   0  0  0  0  0  0  0  0  0  0  0  0
   -7.7699   -8.5767   -7.1058 O   0  0  0  0  0  0  0  0  0  0  0  0
   -7.6565   -7.3420   -7.8190 C   0  0  0  0  0  0  0  0  0  0  0  0
   -6.2023   -6.8660   -7.7757 C   0  0  0  0  0  0  0  0  0  0  0  0
   -0.4303   -4.1402    2.4762 C   0  0  0  0  0  0  0  0  0  0  0  0
   -1.1919   -4.2820    3.6422 C   0  0  0  0  0  0  0  0  0  0  0  0
   -0.6020   -3.9753    4.8529 C   0  0  0  0  0  0  0  0  0  0  0  0
    0.7181   -3.5394    4.8741 C   0  0  0  0  0  0  0  0  0  0  0  0
    1.4111   -3.4159    3.7539 N   0  0  0  0  0  0  0  0  0  0  0  0
    0.8878   -3.7030    2.5788 C   0  0  0  0  0  0  0  0  0  0  0  0
    1.3034   -3.2361    6.0596 O   0  0  0  0  0  0  0  0  0  0  0  0
    2.6615   -2.7936    6.0181 C   0  0  0  0  0  0  0  0  0  0  0  0
    1.0039    1.9031    0.0027 H   0  0  0  0  0  0  0  0  0  0  0  0
   -0.5459    1.8868   -0.8726 H   0  0  0  0  0  0  0  0  0  0  0  0
   -0.5289    1.8773    0.9072 H   0  0  0  0  0  0  0  0  0  0  0  0
    0.5293   -0.3651    0.8851 H   0  0  0  0  0  0  0  0  0  0  0  0
   -1.0205   -0.3814    0.0098 H   0  0  0  0  0  0  0  0  0  0  0  0
    0.1910   -0.1364   -2.1398 H   0  0  0  0  0  0  0  0  0  0  0  0
    1.7408   -0.1202   -1.2645 H   0  0  0  0  0  0  0  0  0  0  0  0
    0.8740   -2.1729   -3.3114 H   0  0  0  0  0  0  0  0  0  0  0  0
    2.4238   -2.1566   -2.4361 H   0  0  0  0  0  0  0  0  0  0  0  0
    1.9203   -4.4498   -3.1297 H   0  0  0  0  0  0  0  0  0  0  0  0
    1.7828   -4.3340   -1.3589 H   0  0  0  0  0  0  0  0  0  0  0  0
    0.7754   -3.9788    0.0725 H   0  0  0  0  0  0  0  0  0  0  0  0
   -2.9333   -5.0019    1.9607 H   0  0  0  0  0  0  0  0  0  0  0  0
   -3.9173   -5.5282   -0.2052 H   0  0  0  0  0  0  0  0  0  0  0  0
   -2.0800   -5.4532   -5.6584 H   0  0  0  0  0  0  0  0  0  0  0  0
   -4.0806   -6.9119   -4.2996 H   0  0  0  0  0  0  0  0  0  0  0  0
   -4.6277   -5.2258   -4.4610 H   0  0  0  0  0  0  0  0  0  0  0  0
   -4.2819   -5.3482   -6.9133 H   0  0  0  0  0  0  0  0  0  0  0  0
   -3.7348   -7.0343   -6.7520 H   0  0  0  0  0  0  0  0  0  0  0  0
   -5.2539   -8.7488   -6.1958 H   0  0  0  0  0  0  0  0  0  0  0  0
   -5.5760   -7.9133   -4.6571 H   0  0  0  0  0  0  0  0  0  0  0  0
   -7.4235   -9.4750   -5.2760 H   0  0  0  0  0  0  0  0  0  0  0  0
   -7.9766   -7.7837   -5.2075 H   0  0  0  0  0  0  0  0  0  0  0  0
   -7.9600   -7.4910   -8.8552 H   0  0  0  0  0  0  0  0  0  0  0  0
   -8.2985   -6.5933   -7.3550 H   0  0  0  0  0  0  0  0  0  0  0  0
   -6.1193   -5.9041   -8.2817 H   0  0  0  0  0  0  0  0  0  0  0  0
   -5.5656   -7.5961   -8.2753 H   0  0  0  0  0  0  0  0  0  0  0  0
   -2.2158   -4.6224    3.5962 H   0  0  0  0  0  0  0  0  0  0  0  0
   -1.1598   -4.0727    5.7725 H   0  0  0  0  0  0  0  0  0  0  0  0
    1.4859   -3.5939    1.6862 H   0  0  0  0  0  0  0  0  0  0  0  0
    3.0069   -2.5853    7.0308 H   0  0  0  0  0  0  0  0  0  0  0  0
    3.2837   -3.5711    5.5748 H   0  0  0  0  0  0  0  0  0  0  0  0
    2.7300   -1.8867    5.4172 H   0  0  0  0  0  0  0  0  0  0  0  0
   -6.3680   -6.0466   -5.9136 H   0  0  0  0  0  0  0  0  0  0  0  0
  1  2  1  0  0  0  0
  1 35  1  0  0  0  0
  1 36  1  0  0  0  0
  1 37  1  0  0  0  0
  2  3  1  0  0  0  0
  2 38  1  0  0  0  0
  2 39  1  0  0  0  0
  3  4  1  0  0  0  0
  3 40  1  0  0  0  0
  3 41  1  0  0  0  0
  4  5  1  0  0  0  0
  5  6  1  0  0  0  0
  5 42  1  0  0  0  0
  5 43  1  0  0  0  0
  6  7  1  0  0  0  0
  6 44  1  0  0  0  0
  6 45  1  0  0  0  0
  7 16  1  0  0  0  0
  7  8  1  0  0  0  0
  8 13  2  0  0  0  0
  8  9  1  0  0  0  0
  9 10  2  0  0  0  0
  9 46  1  0  0  0  0
 10 11  1  0  0  0  0
 10 27  1  0  0  0  0
 11 12  2  0  0  0  0
 11 47  1  0  0  0  0
 12 13  1  0  0  0  0
 12 48  1  0  0  0  0
 13 14  1  0  0  0  0
 14 15  2  0  0  0  0
 15 16  1  0  0  0  0
 15 18  1  0  0  0  0
 16 17  2  0  0  0  0
 18 19  1  0  0  0  0
 18 49  1  0  0  0  0
 19 20  1  0  0  0  0
 19 50  1  0  0  0  0
 19 51  1  0  0  0  0
 20 21  1  0  0  0  0
 20 52  1  0  0  0  0
 20 53  1  0  0  0  0
 21 26  1  0  0  0  0
 21 22  1  0  0  0  0
 21 68  1  0  0  0  0
 22 23  1  0  0  0  0
 22 54  1  0  0  0  0
 22 55  1  0  0  0  0
 23 24  1  0  0  0  0
 23 56  1  0  0  0  0
 23 57  1  0  0  0  0
 24 25  1  0  0  0  0
 25 26  1  0  0  0  0
 25 58  1  0  0  0  0
 25 59  1  0  0  0  0
 26 60  1  0  0  0  0
 26 61  1  0  0  0  0
 27 32  2  0  0  0  0
 27 28  1  0  0  0  0
 28 29  2  0  0  0  0
 28 62  1  0  0  0  0
 29 30  1  0  0  0  0
 29 63  1  0  0  0  0
 30 31  2  0  0  0  0
 30 33  1  0  0  0  0
 31 32  1  0  0  0  0
 32 64  1  0  0  0  0
 33 34  1  0  0  0  0
 34 65  1  0  0  0  0
 34 66  1  0  0  0  0
 34 67  1  0  0  0  0
M  CHG  1  21   1
M  END
$$$$
CHEMBL341092
  -OEChem-07121202283D

 45 50  0     1  0  0  0  0  0999 V2000
   -0.0165    1.3628    0.0095 C   0  0  0  0  0  0  0  0  0  0  0  0
    1.1698    2.0838    0.0021 C   0  0  0  0  0  0  0  0  0  0  0  0
    2.3862    1.4376   -0.0135 C   0  0  0  0  0  0  0  0  0  0  0  0
    2.4284    0.0458   -0.0214 C   0  0  0  0  0  0  0  0  0  0  0  0
    1.2231   -0.6777   -0.0133 C   0  0  0  0  0  0  0  0  0  0  0  0
    0.0021   -0.0041    0.0020 C   0  0  0  0  0  0  0  0  0  0  0  0
    1.2934   -2.1480   -0.0219 C   0  0  0  0  0  0  0  0  0  0  0  0
    2.5744   -2.7535   -0.0380 C   0  0  0  0  0  0  0  0  0  0  0  0
    3.6874   -1.9921   -0.0449 C   0  0  0  0  0  0  0  0  0  0  0  0
    3.6240   -0.6315   -0.0374 N   0  0  0  0  0  0  0  0  0  0  0  0
    4.9010   -2.8944   -0.0614 C   0  0  2  0  0  0  0  0  0  0  0  0
    4.4244   -4.2808   -0.0638 N   0  0  0  0  0  0  0  0  0  0  0  0
    2.9595   -4.2121   -0.0492 C   0  0  0  0  0  0  0  0  0  0  0  0
    5.2017   -5.4259   -0.0782 C   0  0  0  0  0  0  0  0  0  0  0  0
    6.5217   -5.3114   -0.0859 N   0  0  0  0  0  0  0  0  0  0  0  0
    7.2934   -6.3857   -0.0992 C   0  0  0  0  0  0  0  0  0  0  0  0
    6.7052   -7.6407   -0.1050 C   0  0  0  0  0  0  0  0  0  0  0  0
    5.3217   -7.7241   -0.0966 C   0  0  0  0  0  0  0  0  0  0  0  0
    4.6082   -6.6104   -0.0783 N   0  0  0  0  0  0  0  0  0  0  0  0
    5.7400   -2.6447    1.1653 C   0  0  0  0  0  0  0  0  0  0  0  0
    5.3847   -3.2176    2.3723 C   0  0  0  0  0  0  0  0  0  0  0  0
    6.1514   -2.9919    3.5002 C   0  0  0  0  0  0  0  0  0  0  0  0
    7.2785   -2.1899    3.4234 C   0  0  0  0  0  0  0  0  0  0  0  0
    7.6364   -1.6128    2.2075 C   0  0  0  0  0  0  0  0  0  0  0  0
    6.8665   -1.8480    1.0799 C   0  0  0  0  0  0  0  0  0  0  0  0
    8.7708   -0.8762    2.3914 O   0  0  0  0  0  0  0  0  0  0  0  0
    8.8731   -0.6764    3.8137 C   0  0  0  0  0  0  0  0  0  0  0  0
    8.1887   -1.8150    4.3690 O   0  0  0  0  0  0  0  0  0  0  0  0
    0.2786   -2.8253   -0.0151 O   0  0  0  0  0  0  0  0  0  0  0  0
   -0.9613    1.8858    0.0259 H   0  0  0  0  0  0  0  0  0  0  0  0
    1.1386    3.1633    0.0082 H   0  0  0  0  0  0  0  0  0  0  0  0
    3.3032    2.0080   -0.0199 H   0  0  0  0  0  0  0  0  0  0  0  0
   -0.9242   -0.5595    0.0083 H   0  0  0  0  0  0  0  0  0  0  0  0
    5.4905   -2.7047   -0.9584 H   0  0  0  0  0  0  0  0  0  0  0  0
    2.5749   -4.7034    0.8446 H   0  0  0  0  0  0  0  0  0  0  0  0
    2.5575   -4.6942   -0.9403 H   0  0  0  0  0  0  0  0  0  0  0  0
    8.3688   -6.2860   -0.1059 H   0  0  0  0  0  0  0  0  0  0  0  0
    7.3118   -8.5342   -0.1162 H   0  0  0  0  0  0  0  0  0  0  0  0
    4.8322   -8.6868   -0.1011 H   0  0  0  0  0  0  0  0  0  0  0  0
    4.5060   -3.8425    2.4343 H   0  0  0  0  0  0  0  0  0  0  0  0
    5.8715   -3.4407    4.4418 H   0  0  0  0  0  0  0  0  0  0  0  0
    7.1442   -1.4054    0.1348 H   0  0  0  0  0  0  0  0  0  0  0  0
    9.9177   -0.6681    4.1251 H   0  0  0  0  0  0  0  0  0  0  0  0
    8.3775    0.2490    4.1071 H   0  0  0  0  0  0  0  0  0  0  0  0
    4.4504   -0.1236   -0.0431 H   0  0  0  0  0  0  0  0  0  0  0  0
  1  6  2  0  0  0  0
  1  2  1  0  0  0  0
  1 30  1  0  0  0  0
  2  3  2  0  0  0  0
  2 31  1  0  0  0  0
  3  4  1  0  0  0  0
  3 32  1  0  0  0  0
  4 10  1  0  0  0  0
  4  5  2  0  0  0  0
  5  6  1  0  0  0  0
  5  7  1  0  0  0  0
  6 33  1  0  0  0  0
  7  8  1  0  0  0  0
  7 29  2  0  0  0  0
  8 13  1  0  0  0  0
  8  9  2  0  0  0  0
  9 10  1  0  0  0  0
  9 11  1  0  0  0  0
 10 45  1  0  0  0  0
 11 12  1  0  0  0  0
 11 20  1  0  0  0  0
 11 34  1  0  0  0  0
 12 13  1  0  0  0  0
 12 14  1  0  0  0  0
 13 35  1  0  0  0  0
 13 36  1  0  0  0  0
 14 19  2  0  0  0  0
 14 15  1  0  0  0  0
 15 16  2  0  0  0  0
 16 17  1  0  0  0  0
 16 37  1  0  0  0  0
 17 18  2  0  0  0  0
 17 38  1  0  0  0  0
 18 19  1  0  0  0  0
 18 39  1  0  0  0  0
 20 25  2  0  0  0  0
 20 21  1  0  0  0  0
 21 22  2  0  0  0  0
 21 40  1  0  0  0  0
 22 23  1  0  0  0  0
 22 41  1  0  0  0  0
 23 28  1  0  0  0  0
 23 24  2  0  0  0  0
 24 25  1  0  0  0  0
 24 26  1  0  0  0  0
 25 42  1  0  0  0  0
 26 27  1  0  0  0  0
 27 28  1  0  0  0  0
 27 43  1  0  0  0  0
 27 44  1  0  0  0  0
M  END
$$$$
CHEMBL341092
  -OEChem-07121202283D

 45 50  0     1  0  0  0  0  0999 V2000
   -0.0165    1.3628    0.0095 C   0  0  0  0  0  0  0  0  0  0  0  0
    1.1698    2.0838    0.0021 C   0  0  0  0  0  0  0  0  0  0  0  0
    2.3862    1.4376   -0.0135 C   0  0  0  0  0  0  0  0  0  0  0  0
    2.4284    0.0458   -0.0214 C   0  0  0  0  0  0  0  0  0  0  0  0
    1.2231   -0.6777   -0.0133 C   0  0  0  0  0  0  0  0  0  0  0  0
    0.0021   -0.0041    0.0020 C   0  0  0  0  0  0  0  0  0  0  0  0
    1.2934   -2.1480   -0.0219 C   0  0  0  0  0  0  0  0  0  0  0  0
    2.5744   -2.7535   -0.0380 C   0  0  0  0  0  0  0  0  0  0  0  0
    3.6874   -1.9921   -0.0449 C   0  0  0  0  0  0  0  0  0  0  0  0
    3.6240   -0.6315   -0.0374 N   0  0  0  0  0  0  0  0  0  0  0  0
    4.9010   -2.8944   -0.0614 C   0  0  1  0  0  0  0  0  0  0  0  0
    4.4244   -4.2808   -0.0638 N   0  0  0  0  0  0  0  0  0  0  0  0
    2.9595   -4.2121   -0.0492 C   0  0  0  0  0  0  0  0  0  0  0  0
    5.2017   -5.4259   -0.0782 C   0  0  0  0  0  0  0  0  0  0  0  0
    6.5217   -5.3114   -0.0859 N   0  0  0  0  0  0  0  0  0  0  0  0
    7.2934   -6.3857   -0.0992 C   0  0  0  0  0  0  0  0  0  0  0  0
    6.7052   -7.6407   -0.1050 C   0  0  0  0  0  0  0  0  0  0  0  0
    5.3217   -7.7241   -0.0966 C   0  0  0  0  0  0  0  0  0  0  0  0
    4.6082   -6.6104   -0.0783 N   0  0  0  0  0  0  0  0  0  0  0  0
    5.7160   -2.6321   -1.3016 C   0  0  0  0  0  0  0  0  0  0  0  0
    5.3306   -3.1832   -2.5095 C   0  0  0  0  0  0  0  0  0  0  0  0
    6.0746   -2.9451   -3.6500 C   0  0  0  0  0  0  0  0  0  0  0  0
    7.2095   -2.1531   -3.5847 C   0  0  0  0  0  0  0  0  0  0  0  0
    7.5977   -1.5979   -2.3679 C   0  0  0  0  0  0  0  0  0  0  0  0
    6.8440   -1.8362   -1.2301 C   0  0  0  0  0  0  0  0  0  0  0  0
    8.7339   -0.8674   -2.5644 O   0  0  0  0  0  0  0  0  0  0  0  0
    9.2645   -1.3137   -3.8263 C   0  0  0  0  0  0  0  0  0  0  0  0
    8.1025   -1.7704   -4.5435 O   0  0  0  0  0  0  0  0  0  0  0  0
    0.2786   -2.8253   -0.0151 O   0  0  0  0  0  0  0  0  0  0  0  0
   -0.9613    1.8858    0.0259 H   0  0  0  0  0  0  0  0  0  0  0  0
    1.1386    3.1633    0.0082 H   0  0  0  0  0  0  0  0  0  0  0  0
    3.3032    2.0080   -0.0199 H   0  0  0  0  0  0  0  0  0  0  0  0
   -0.9242   -0.5595    0.0083 H   0  0  0  0  0  0  0  0  0  0  0  0
    5.5079   -2.7138    0.8259 H   0  0  0  0  0  0  0  0  0  0  0  0
    2.5749   -4.7034    0.8446 H   0  0  0  0  0  0  0  0  0  0  0  0
    2.5575   -4.6942   -0.9403 H   0  0  0  0  0  0  0  0  0  0  0  0
    8.3688   -6.2860   -0.1059 H   0  0  0  0  0  0  0  0  0  0  0  0
    7.3118   -8.5342   -0.1162 H   0  0  0  0  0  0  0  0  0  0  0  0
    4.8322   -8.6868   -0.1011 H   0  0  0  0  0  0  0  0  0  0  0  0
    4.4467   -3.8015   -2.5622 H   0  0  0  0  0  0  0  0  0  0  0  0
    5.7713   -3.3769   -4.5923 H   0  0  0  0  0  0  0  0  0  0  0  0
    7.1401   -1.4033   -0.2860 H   0  0  0  0  0  0  0  0  0  0  0  0
    9.7409   -0.4881   -4.3550 H   0  0  0  0  0  0  0  0  0  0  0  0
    9.9690   -2.1321   -3.6777 H   0  0  0  0  0  0  0  0  0  0  0  0
    4.4504   -0.1236   -0.0431 H   0  0  0  0  0  0  0  0  0  0  0  0
  1  6  2  0  0  0  0
  1  2  1  0  0  0  0
  1 30  1  0  0  0  0
  2  3  2  0  0  0  0
  2 31  1  0  0  0  0
  3  4  1  0  0  0  0
  3 32  1  0  0  0  0
  4 10  1  0  0  0  0
  4  5  2  0  0  0  0
  5  6  1  0  0  0  0
  5  7  1  0  0  0  0
  6 33  1  0  0  0  0
  7  8  1  0  0  0  0
  7 29  2  0  0  0  0
  8 13  1  0  0  0  0
  8  9  2  0  0  0  0
  9 10  1  0  0  0  0
  9 11  1  0  0  0  0
 10 45  1  0  0  0  0
 11 12  1  0  0  0  0
 11 20  1  0  0  0  0
 11 34  1  0  0  0  0
 12 13  1  0  0  0  0
 12 14  1  0  0  0  0
 13 35  1  0  0  0  0
 13 36  1  0  0  0  0
 14 19  2  0  0  0  0
 14 15  1  0  0  0  0
 15 16  2  0  0  0  0
 16 17  1  0  0  0  0
 16 37  1  0  0  0  0
 17 18  2  0  0  0  0
 17 38  1  0  0  0  0
 18 19  1  0  0  0  0
 18 39  1  0  0  0  0
 20 25  2  0  0  0  0
 20 21  1  0  0  0  0
 21 22  2  0  0  0  0
 21 40  1  0  0  0  0
 22 23  1  0  0  0  0
 22 41  1  0  0  0  0
 23 28  1  0  0  0  0
 23 24  2  0  0  0  0
 24 25  1  0  0  0  0
 24 26  1  0  0  0  0
 25 42  1  0  0  0  0
 26 27  1  0  0  0  0
 27 28  1  0  0  0  0
 27 43  1  0  0  0  0
 27 44  1  0  0  0  0
M  END
$$$$
CHEMBL433708
  -OEChem-07121202283D

 79 86  0     1  0  0  0  0  0999 V2000
    2.7181    1.2878   -1.4294 C   0  0  0  0  0  0  0  0  0  0  0  0
    2.0160    0.0974   -0.9314 N   0  3  0  0  0  0  0  0  0  0  0  0
    1.9667   -0.9185   -1.9905 C   0  0  0  0  0  0  0  0  0  0  0  0
    1.1364   -2.1140   -1.5119 C   0  0  0  0  0  0  0  0  0  0  0  0
    1.6971   -2.5913   -0.2384 N   0  0  0  0  0  0  0  0  0  0  0  0
    1.9338   -1.6055    0.8276 C   0  0  0  0  0  0  0  0  0  0  0  0
    2.7265   -0.4340    0.2386 C   0  0  0  0  0  0  0  0  0  0  0  0
    1.9854   -3.8948   -0.0534 C   0  0  0  0  0  0  0  0  0  0  0  0
    1.7081   -4.7068   -0.9145 O   0  0  0  0  0  0  0  0  0  0  0  0
    2.6384   -4.3367    1.1959 C   0  0  0  0  0  0  0  0  0  0  0  0
    2.1816   -3.8625    2.4285 C   0  0  0  0  0  0  0  0  0  0  0  0
    2.7899   -4.2737    3.5922 C   0  0  0  0  0  0  0  0  0  0  0  0
    3.8646   -5.1662    3.5414 C   0  0  0  0  0  0  0  0  0  0  0  0
    4.3210   -5.6408    2.3084 C   0  0  0  0  0  0  0  0  0  0  0  0
    3.7090   -5.2334    1.1452 C   0  0  0  0  0  0  0  0  0  0  0  0
    4.5176   -5.6070    4.7896 C   0  0  0  0  0  0  0  0  0  0  0  0
    5.5748   -6.4673    4.8743 C   0  0  0  0  0  0  0  0  0  0  0  0
    5.8780   -6.6131    6.2322 C   0  0  0  0  0  0  0  0  0  0  0  0
    4.9839   -5.8276    6.9256 C   0  0  0  0  0  0  0  0  0  0  0  0
    4.1743   -5.2241    6.0310 O   0  0  0  0  0  0  0  0  0  0  0  0
    4.9261   -5.6700    8.3826 C   0  0  0  0  0  0  0  0  0  0  0  0
    5.7534   -6.2178    9.0872 O   0  0  0  0  0  0  0  0  0  0  0  0
    3.9567   -4.9185    8.9412 N   0  0  0  0  0  0  0  0  0  0  0  0
    3.8056   -4.8469   10.4024 C   0  0  0  0  0  0  0  0  0  0  0  0
    4.0812   -3.4099   10.8614 C   0  0  0  0  0  0  0  0  0  0  0  0
    3.3591   -2.4556    9.9449 C   0  0  0  0  0  0  0  0  0  0  0  0
    3.0340   -1.0624   10.1757 C   0  0  0  0  0  0  0  0  0  0  0  0
    3.2653   -0.2012   11.2526 C   0  0  0  0  0  0  0  0  0  0  0  0
    2.8078    1.0872   11.1261 C   0  0  0  0  0  0  0  0  0  0  0  0
    2.1467    1.5253    9.9902 C   0  0  0  0  0  0  0  0  0  0  0  0
    1.9051    0.6948    8.9097 C   0  0  0  0  0  0  0  0  0  0  0  0
    2.3582   -0.6191    9.0100 C   0  0  0  0  0  0  0  0  0  0  0  0
    2.2908   -1.6786    8.1517 N   0  0  0  0  0  0  0  0  0  0  0  0
    1.8811   -1.6597    7.2727 H   0  0  0  0  0  0  0  0  0  0  0  0
    2.8893   -2.7720    8.7188 C   0  0  0  0  0  0  0  0  0  0  0  0
    3.0254   -4.1430    8.1042 C   0  0  2  0  0  0  0  0  0  0  0  0
    1.6799   -4.8210    8.0725 C   0  0  0  0  0  0  0  0  0  0  0  0
    0.9384   -4.9459    9.2331 C   0  0  0  0  0  0  0  0  0  0  0  0
   -0.2955   -5.5618    9.2089 C   0  0  0  0  0  0  0  0  0  0  0  0
   -0.8056   -6.0639    8.0140 C   0  0  0  0  0  0  0  0  0  0  0  0
   -0.0484   -5.9390    6.8565 C   0  0  0  0  0  0  0  0  0  0  0  0
    1.1795   -5.3155    6.8812 C   0  0  0  0  0  0  0  0  0  0  0  0
   -0.8375   -6.5897    5.7369 C   0  0  0  0  0  0  0  0  0  0  0  0
   -1.8929   -7.4050    6.5212 C   0  0  0  0  0  0  0  0  0  0  0  0
   -1.9891   -6.6884    7.7639 O   0  0  0  0  0  0  0  0  0  0  0  0
    3.7353    1.0175   -1.7130 H   0  0  0  0  0  0  0  0  0  0  0  0
    2.1917    1.6833   -2.2981 H   0  0  0  0  0  0  0  0  0  0  0  0
    2.7484    2.0458   -0.6467 H   0  0  0  0  0  0  0  0  0  0  0  0
    1.5085   -0.4915   -2.8826 H   0  0  0  0  0  0  0  0  0  0  0  0
    2.9787   -1.2491   -2.2243 H   0  0  0  0  0  0  0  0  0  0  0  0
    0.1016   -1.8054   -1.3638 H   0  0  0  0  0  0  0  0  0  0  0  0
    1.1812   -2.9115   -2.2536 H   0  0  0  0  0  0  0  0  0  0  0  0
    0.9794   -1.2455    1.2120 H   0  0  0  0  0  0  0  0  0  0  0  0
    2.5057   -2.0668    1.6327 H   0  0  0  0  0  0  0  0  0  0  0  0
    3.7155   -0.7793   -0.0627 H   0  0  0  0  0  0  0  0  0  0  0  0
    2.8281    0.3500    0.9891 H   0  0  0  0  0  0  0  0  0  0  0  0
    1.3513   -3.1729    2.4677 H   0  0  0  0  0  0  0  0  0  0  0  0
    2.4374   -3.9066    4.5448 H   0  0  0  0  0  0  0  0  0  0  0  0
    5.1512   -6.3304    2.2689 H   0  0  0  0  0  0  0  0  0  0  0  0
    4.0589   -5.6032    0.1928 H   0  0  0  0  0  0  0  0  0  0  0  0
    6.0810   -6.9454    4.0487 H   0  0  0  0  0  0  0  0  0  0  0  0
    6.6617   -7.2239    6.6552 H   0  0  0  0  0  0  0  0  0  0  0  0
    2.7898   -5.1296   10.6784 H   0  0  0  0  0  0  0  0  0  0  0  0
    4.5162   -5.5240   10.8764 H   0  0  0  0  0  0  0  0  0  0  0  0
    3.7220   -3.2778   11.8820 H   0  0  0  0  0  0  0  0  0  0  0  0
    5.1526   -3.2135   10.8218 H   0  0  0  0  0  0  0  0  0  0  0  0
    3.7794   -0.5338   12.1423 H   0  0  0  0  0  0  0  0  0  0  0  0
    2.9680    1.7810   11.9381 H   0  0  0  0  0  0  0  0  0  0  0  0
    1.8087    2.5501    9.9462 H   0  0  0  0  0  0  0  0  0  0  0  0
    1.3886    1.0486    8.0297 H   0  0  0  0  0  0  0  0  0  0  0  0
    3.4212   -4.0567    7.0923 H   0  0  0  0  0  0  0  0  0  0  0  0
    1.3277   -4.5595   10.1635 H   0  0  0  0  0  0  0  0  0  0  0  0
   -0.8684   -5.6548   10.1197 H   0  0  0  0  0  0  0  0  0  0  0  0
    1.7533   -5.2159    5.9717 H   0  0  0  0  0  0  0  0  0  0  0  0
   -1.3146   -5.8377    5.1084 H   0  0  0  0  0  0  0  0  0  0  0  0
   -0.2017   -7.2457    5.1424 H   0  0  0  0  0  0  0  0  0  0  0  0
   -2.8495   -7.4022    5.9987 H   0  0  0  0  0  0  0  0  0  0  0  0
   -1.5464   -8.4247    6.6892 H   0  0  0  0  0  0  0  0  0  0  0  0
    1.0756    0.3494   -0.6665 H   0  0  0  0  0  0  0  0  0  0  0  0
  1  2  1  0  0  0  0
  1 46  1  0  0  0  0
  1 47  1  0  0  0  0
  1 48  1  0  0  0  0
  2  7  1  0  0  0  0
  2  3  1  0  0  0  0
  2 79  1  0  0  0  0
  3  4  1  0  0  0  0
  3 49  1  0  0  0  0
  3 50  1  0  0  0  0
  4  5  1  0  0  0  0
  4 51  1  0  0  0  0
  4 52  1  0  0  0  0
  5  6  1  0  0  0  0
  5  8  1  0  0  0  0
  6  7  1  0  0  0  0
  6 53  1  0  0  0  0
  6 54  1  0  0  0  0
  7 55  1  0  0  0  0
  7 56  1  0  0  0  0
  8  9  2  0  0  0  0
  8 10  1  0  0  0  0
 10 15  2  0  0  0  0
 10 11  1  0  0  0  0
 11 12  2  0  0  0  0
 11 57  1  0  0  0  0
 12 13  1  0  0  0  0
 12 58  1  0  0  0  0
 13 14  2  0  0  0  0
 13 16  1  0  0  0  0
 14 15  1  0  0  0  0
 14 59  1  0  0  0  0
 15 60  1  0  0  0  0
 16 20  1  0  0  0  0
 16 17  2  0  0  0  0
 17 18  1  0  0  0  0
 17 61  1  0  0  0  0
 18 19  2  0  0  0  0
 18 62  1  0  0  0  0
 19 20  1  0  0  0  0
 19 21  1  0  0  0  0
 21 22  2  0  0  0  0
 21 23  1  0  0  0  0
 23 36  1  0  0  0  0
 23 24  1  0  0  0  0
 24 25  1  0  0  0  0
 24 63  1  0  0  0  0
 24 64  1  0  0  0  0
 25 26  1  0  0  0  0
 25 65  1  0  0  0  0
 25 66  1  0  0  0  0
 26 35  2  0  0  0  0
 26 27  1  0  0  0  0
 27 32  2  0  0  0  0
 27 28  1  0  0  0  0
 28 29  2  0  0  0  0
 28 67  1  0  0  0  0
 29 30  1  0  0  0  0
 29 68  1  0  0  0  0
 30 31  2  0  0  0  0
 30 69  1  0  0  0  0
 31 32  1  0  0  0  0
 31 70  1  0  0  0  0
 32 33  1  0  0  0  0
 33 34  1  0  0  0  0
 33 35  1  0  0  0  0
 35 36  1  0  0  0  0
 36 37  1  0  0  0  0
 36 71  1  0  0  0  0
 37 42  2  0  0  0  0
 37 38  1  0  0  0  0
 38 39  2  0  0  0  0
 38 72  1  0  0  0  0
 39 40  1  0  0  0  0
 39 73  1  0  0  0  0
 40 45  1  0  0  0  0
 40 41  2  0  0  0  0
 41 42  1  0  0  0  0
 41 43  1  0  0  0  0
 42 74  1  0  0  0  0
 43 44  1  0  0  0  0
 43 75  1  0  0  0  0
 43 76  1  0  0  0  0
 44 45  1  0  0  0  0
 44 77  1  0  0  0  0
 44 78  1  0  0  0  0
M  CHG  1   2   1
M  END
$$$$
CHEMBL433708
  -OEChem-07121202283D

 78 85  0     1  0  0  0  0  0999 V2000
    4.6207   -9.6994   19.9715 C   0  0  0  0  0  0  0  0  0  0  0  0
    5.5335   -8.8997   19.1438 N   0  0  0  0  0  0  0  0  0  0  0  0
    6.9115   -9.3978   19.2480 C   0  0  0  0  0  0  0  0  0  0  0  0
    7.8556   -8.4348   18.5203 C   0  0  0  0  0  0  0  0  0  0  0  0
    7.3643   -8.2475   17.1468 N   0  0  0  0  0  0  0  0  0  0  0  0
    5.9526   -7.8810   16.9566 C   0  0  0  0  0  0  0  0  0  0  0  0
    5.0834   -8.8658   17.7459 C   0  0  0  0  0  0  0  0  0  0  0  0
    8.1858   -8.4071   16.0904 C   0  0  0  0  0  0  0  0  0  0  0  0
    9.3680   -8.6286   16.2677 O   0  0  0  0  0  0  0  0  0  0  0  0
    7.6499   -8.3129   14.7169 C   0  0  0  0  0  0  0  0  0  0  0  0
    6.7856   -7.2697   14.3744 C   0  0  0  0  0  0  0  0  0  0  0  0
    6.2859   -7.1820   13.0953 C   0  0  0  0  0  0  0  0  0  0  0  0
    6.6433   -8.1363   12.1385 C   0  0  0  0  0  0  0  0  0  0  0  0
    7.5083   -9.1795   12.4813 C   0  0  0  0  0  0  0  0  0  0  0  0
    8.0118   -9.2638   13.7590 C   0  0  0  0  0  0  0  0  0  0  0  0
    6.1070   -8.0427   10.7665 C   0  0  0  0  0  0  0  0  0  0  0  0
    6.3738   -8.9106    9.7463 C   0  0  0  0  0  0  0  0  0  0  0  0
    5.6685   -8.4573    8.6265 C   0  0  0  0  0  0  0  0  0  0  0  0
    4.9945   -7.3206    9.0146 C   0  0  0  0  0  0  0  0  0  0  0  0
    5.2707   -7.0927   10.3152 O   0  0  0  0  0  0  0  0  0  0  0  0
    4.1231   -6.5035    8.1635 C   0  0  0  0  0  0  0  0  0  0  0  0
    4.0255   -6.7521    6.9762 O   0  0  0  0  0  0  0  0  0  0  0  0
    3.4306   -5.4774    8.6963 N   0  0  0  0  0  0  0  0  0  0  0  0
    2.6471   -4.5721    7.8422 C   0  0  0  0  0  0  0  0  0  0  0  0
    1.1618   -4.7159    8.1952 C   0  0  0  0  0  0  0  0  0  0  0  0
    1.0119   -4.7137    9.6951 C   0  0  0  0  0  0  0  0  0  0  0  0
   -0.1841   -4.4740   10.4772 C   0  0  0  0  0  0  0  0  0  0  0  0
   -1.5053   -4.1835   10.1234 C   0  0  0  0  0  0  0  0  0  0  0  0
   -2.3999   -4.0140   11.1512 C   0  0  0  0  0  0  0  0  0  0  0  0
   -2.0237   -4.1231   12.4800 C   0  0  0  0  0  0  0  0  0  0  0  0
   -0.7237   -4.4104   12.8584 C   0  0  0  0  0  0  0  0  0  0  0  0
    0.2065   -4.5874   11.8361 C   0  0  0  0  0  0  0  0  0  0  0  0
    1.5410   -4.8748   11.8526 N   0  0  0  0  0  0  0  0  0  0  0  0
    2.0734   -5.0084   12.6523 H   0  0  0  0  0  0  0  0  0  0  0  0
    2.0145   -4.9465   10.5696 C   0  0  0  0  0  0  0  0  0  0  0  0
    3.4339   -5.2376   10.1496 C   0  0  2  0  0  0  0  0  0  0  0  0
    4.3112   -4.0552   10.4711 C   0  0  0  0  0  0  0  0  0  0  0  0
    3.9916   -2.8012    9.9835 C   0  0  0  0  0  0  0  0  0  0  0  0
    4.7888   -1.7149   10.2783 C   0  0  0  0  0  0  0  0  0  0  0  0
    5.9238   -1.8720   11.0703 C   0  0  0  0  0  0  0  0  0  0  0  0
    6.2384   -3.1376   11.5480 C   0  0  0  0  0  0  0  0  0  0  0  0
    5.4359   -4.2194   11.2599 C   0  0  0  0  0  0  0  0  0  0  0  0
    7.5206   -3.0050   12.3467 C   0  0  0  0  0  0  0  0  0  0  0  0
    8.0362   -1.6177   11.8963 C   0  0  0  0  0  0  0  0  0  0  0  0
    6.8312   -0.9475   11.4888 O   0  0  0  0  0  0  0  0  0  0  0  0
    4.5852  -10.7202   19.5910 H   0  0  0  0  0  0  0  0  0  0  0  0
    4.9773   -9.7079   21.0015 H   0  0  0  0  0  0  0  0  0  0  0  0
    3.6222   -9.2636   19.9363 H   0  0  0  0  0  0  0  0  0  0  0  0
    7.1965   -9.4625   20.2981 H   0  0  0  0  0  0  0  0  0  0  0  0
    6.9768  -10.3855   18.7916 H   0  0  0  0  0  0  0  0  0  0  0  0
    7.8705   -7.4756   19.0379 H   0  0  0  0  0  0  0  0  0  0  0  0
    8.8606   -8.8562   18.4954 H   0  0  0  0  0  0  0  0  0  0  0  0
    5.7845   -6.8686   17.3238 H   0  0  0  0  0  0  0  0  0  0  0  0
    5.6994   -7.9363   15.8979 H   0  0  0  0  0  0  0  0  0  0  0  0
    5.1741   -9.8609   17.3103 H   0  0  0  0  0  0  0  0  0  0  0  0
    4.0426   -8.5446   17.7066 H   0  0  0  0  0  0  0  0  0  0  0  0
    6.5095   -6.5324   15.1137 H   0  0  0  0  0  0  0  0  0  0  0  0
    5.6174   -6.3761   12.8308 H   0  0  0  0  0  0  0  0  0  0  0  0
    7.7845   -9.9169   11.7422 H   0  0  0  0  0  0  0  0  0  0  0  0
    8.6833  -10.0675   14.0229 H   0  0  0  0  0  0  0  0  0  0  0  0
    7.0098   -9.7821    9.7948 H   0  0  0  0  0  0  0  0  0  0  0  0
    5.6554   -8.9110    7.6465 H   0  0  0  0  0  0  0  0  0  0  0  0
    2.9647   -3.5434    8.0129 H   0  0  0  0  0  0  0  0  0  0  0  0
    2.8004   -4.8341    6.7954 H   0  0  0  0  0  0  0  0  0  0  0  0
    0.6036   -3.8810    7.7716 H   0  0  0  0  0  0  0  0  0  0  0  0
    0.7801   -5.6539    7.7919 H   0  0  0  0  0  0  0  0  0  0  0  0
   -1.8078   -4.0962    9.0903 H   0  0  0  0  0  0  0  0  0  0  0  0
   -3.4295   -3.7881   10.9162 H   0  0  0  0  0  0  0  0  0  0  0  0
   -2.7704   -3.9794   13.2469 H   0  0  0  0  0  0  0  0  0  0  0  0
   -0.4431   -4.4928   13.8980 H   0  0  0  0  0  0  0  0  0  0  0  0
    3.7992   -6.1229   10.6700 H   0  0  0  0  0  0  0  0  0  0  0  0
    3.1135   -2.6718    9.3684 H   0  0  0  0  0  0  0  0  0  0  0  0
    4.5318   -0.7388    9.8940 H   0  0  0  0  0  0  0  0  0  0  0  0
    5.6866   -5.1961   11.6466 H   0  0  0  0  0  0  0  0  0  0  0  0
    7.3155   -3.0156   13.4172 H   0  0  0  0  0  0  0  0  0  0  0  0
    8.2288   -3.7894   12.0795 H   0  0  0  0  0  0  0  0  0  0  0  0
    8.5081   -1.0928   12.7269 H   0  0  0  0  0  0  0  0  0  0  0  0
    8.7260   -1.7156   11.0580 H   0  0  0  0  0  0  0  0  0  0  0  0
  1  2  1  0  0  0  0
  1 46  1  0  0  0  0
  1 47  1  0  0  0  0
  1 48  1  0  0  0  0
  2  7  1  0  0  0  0
  2  3  1  0  0  0  0
  3  4  1  0  0  0  0
  3 49  1  0  0  0  0
  3 50  1  0  0  0  0
  4  5  1  0  0  0  0
  4 51  1  0  0  0  0
  4 52  1  0  0  0  0
  5  6  1  0  0  0  0
  5  8  1  0  0  0  0
  6  7  1  0  0  0  0
  6 53  1  0  0  0  0
  6 54  1  0  0  0  0
  7 55  1  0  0  0  0
  7 56  1  0  0  0  0
  8  9  2  0  0  0  0
  8 10  1  0  0  0  0
 10 15  2  0  0  0  0
 10 11  1  0  0  0  0
 11 12  2  0  0  0  0
 11 57  1  0  0  0  0
 12 13  1  0  0  0  0
 12 58  1  0  0  0  0
 13 14  2  0  0  0  0
 13 16  1  0  0  0  0
 14 15  1  0  0  0  0
 14 59  1  0  0  0  0
 15 60  1  0  0  0  0
 16 20  1  0  0  0  0
 16 17  2  0  0  0  0
 17 18  1  0  0  0  0
 17 61  1  0  0  0  0
 18 19  2  0  0  0  0
 18 62  1  0  0  0  0
 19 20  1  0  0  0  0
 19 21  1  0  0  0  0
 21 22  2  0  0  0  0
 21 23  1  0  0  0  0
 23 36  1  0  0  0  0
 23 24  1  0  0  0  0
 24 25  1  0  0  0  0
 24 63  1  0  0  0  0
 24 64  1  0  0  0  0
 25 26  1  0  0  0  0
 25 65  1  0  0  0  0
 25 66  1  0  0  0  0
 26 35  2  0  0  0  0
 26 27  1  0  0  0  0
 27 32  2  0  0  0  0
 27 28  1  0  0  0  0
 28 29  2  0  0  0  0
 28 67  1  0  0  0  0
 29 30  1  0  0  0  0
 29 68  1  0  0  0  0
 30 31  2  0  0  0  0
 30 69  1  0  0  0  0
 31 32  1  0  0  0  0
 31 70  1  0  0  0  0
 32 33  1  0  0  0  0
 33 34  1  0  0  0  0
 33 35  1  0  0  0  0
 35 36  1  0  0  0  0
 36 37  1  0  0  0  0
 36 71  1  0  0  0  0
 37 42  2  0  0  0  0
 37 38  1  0  0  0  0
 38 39  2  0  0  0  0
 38 72  1  0  0  0  0
 39 40  1  0  0  0  0
 39 73  1  0  0  0  0
 40 45  1  0  0  0  0
 40 41  2  0  0  0  0
 41 42  1  0  0  0  0
 41 43  1  0  0  0  0
 42 74  1  0  0  0  0
 43 44  1  0  0  0  0
 43 75  1  0  0  0  0
 43 76  1  0  0  0  0
 44 45  1  0  0  0  0
 44 77  1  0  0  0  0
 44 78  1  0  0  0  0
M  END
$$$$
CHEMBL433708
  -OEChem-07121202283D

 79 86  0     1  0  0  0  0  0999 V2000
    2.0479    2.2621   -0.8590 C   0  0  0  0  0  0  0  0  0  0  0  0
    1.3332    1.0766   -0.3675 N   0  3  0  0  0  0  0  0  0  0  0  0
    1.0743    0.1638   -1.4882 C   0  0  0  0  0  0  0  0  0  0  0  0
    0.2299   -1.0174   -0.9988 C   0  0  0  0  0  0  0  0  0  0  0  0
    0.9158   -1.6390    0.1445 N   0  0  0  0  0  0  0  0  0  0  0  0
    1.3588   -0.7681    1.2442 C   0  0  0  0  0  0  0  0  0  0  0  0
    2.1499    0.4014    0.6490 C   0  0  0  0  0  0  0  0  0  0  0  0
    1.1318   -2.9688    0.1836 C   0  0  0  0  0  0  0  0  0  0  0  0
    0.6956   -3.6817   -0.6992 O   0  0  0  0  0  0  0  0  0  0  0  0
    1.8986   -3.5601    1.2993 C   0  0  0  0  0  0  0  0  0  0  0  0
    1.6360   -3.1655    2.6139 C   0  0  0  0  0  0  0  0  0  0  0  0
    2.3504   -3.7158    3.6532 C   0  0  0  0  0  0  0  0  0  0  0  0
    3.3386   -4.6698    3.3940 C   0  0  0  0  0  0  0  0  0  0  0  0
    3.6008   -5.0647    2.0790 C   0  0  0  0  0  0  0  0  0  0  0  0
    2.8825   -4.5180    1.0404 C   0  0  0  0  0  0  0  0  0  0  0  0
    4.1054   -5.2599    4.5087 C   0  0  0  0  0  0  0  0  0  0  0  0
    5.0957   -6.1925    4.3882 C   0  0  0  0  0  0  0  0  0  0  0  0
    5.5527   -6.4756    5.6797 C   0  0  0  0  0  0  0  0  0  0  0  0
    4.8145   -5.6958    6.5423 C   0  0  0  0  0  0  0  0  0  0  0  0
    3.9491   -4.9643    5.8102 O   0  0  0  0  0  0  0  0  0  0  0  0
    4.9501   -5.6620    8.0024 C   0  0  0  0  0  0  0  0  0  0  0  0
    5.8513   -6.2746    8.5442 O   0  0  0  0  0  0  0  0  0  0  0  0
    4.0766   -4.9524    8.7440 N   0  0  0  0  0  0  0  0  0  0  0  0
    4.1523   -4.9616   10.2127 C   0  0  0  0  0  0  0  0  0  0  0  0
    2.8789   -5.6069   10.7727 C   0  0  0  0  0  0  0  0  0  0  0  0
    1.6839   -5.0435   10.0469 C   0  0  0  0  0  0  0  0  0  0  0  0
    0.2923   -5.0754   10.4495 C   0  0  0  0  0  0  0  0  0  0  0  0
   -0.3583   -5.6017   11.5697 C   0  0  0  0  0  0  0  0  0  0  0  0
   -1.7214   -5.4464   11.6254 C   0  0  0  0  0  0  0  0  0  0  0  0
   -2.4301   -4.8009   10.6254 C   0  0  0  0  0  0  0  0  0  0  0  0
   -1.8119   -4.2706    9.5063 C   0  0  0  0  0  0  0  0  0  0  0  0
   -0.4284   -4.4139    9.4223 C   0  0  0  0  0  0  0  0  0  0  0  0
    0.4770   -4.0203    8.4795 N   0  0  0  0  0  0  0  0  0  0  0  0
    0.2609   -3.5444    7.6623 H   0  0  0  0  0  0  0  0  0  0  0  0
    1.7365   -4.3986    8.8614 C   0  0  0  0  0  0  0  0  0  0  0  0
    3.0254   -4.1430    8.1042 C   0  0  1  0  0  0  0  0  0  0  0  0
    3.3872   -2.6820    8.1796 C   0  0  0  0  0  0  0  0  0  0  0  0
    3.6091   -1.9614    7.0204 C   0  0  0  0  0  0  0  0  0  0  0  0
    3.9364   -0.6230    7.0837 C   0  0  0  0  0  0  0  0  0  0  0  0
    4.0467    0.0147    8.3171 C   0  0  0  0  0  0  0  0  0  0  0  0
    3.8288   -0.7214    9.4745 C   0  0  0  0  0  0  0  0  0  0  0  0
    3.4931   -2.0557    9.4087 C   0  0  0  0  0  0  0  0  0  0  0  0
    4.0398    0.2188   10.6455 C   0  0  0  0  0  0  0  0  0  0  0  0
    4.7721    1.4053    9.9751 C   0  0  0  0  0  0  0  0  0  0  0  0
    4.3428    1.3116    8.6062 O   0  0  0  0  0  0  0  0  0  0  0  0
    2.9977    1.9575   -1.2987 H   0  0  0  0  0  0  0  0  0  0  0  0
    1.4427    2.7643   -1.6137 H   0  0  0  0  0  0  0  0  0  0  0  0
    2.2337    2.9443   -0.0294 H   0  0  0  0  0  0  0  0  0  0  0  0
    0.5357    0.6952   -2.2728 H   0  0  0  0  0  0  0  0  0  0  0  0
    2.0210   -0.2050   -1.8828 H   0  0  0  0  0  0  0  0  0  0  0  0
   -0.7522   -0.6615   -0.6874 H   0  0  0  0  0  0  0  0  0  0  0  0
    0.1208   -1.7470   -1.8013 H   0  0  0  0  0  0  0  0  0  0  0  0
    0.4908   -0.3870    1.7821 H   0  0  0  0  0  0  0  0  0  0  0  0
    1.9962   -1.3328    1.9246 H   0  0  0  0  0  0  0  0  0  0  0  0
    3.0642    0.0254    0.1897 H   0  0  0  0  0  0  0  0  0  0  0  0
    2.4040    1.1079    1.4392 H   0  0  0  0  0  0  0  0  0  0  0  0
    0.8725   -2.4284    2.8141 H   0  0  0  0  0  0  0  0  0  0  0  0
    2.1479   -3.4103    4.6692 H   0  0  0  0  0  0  0  0  0  0  0  0
    4.3643   -5.8018    1.8785 H   0  0  0  0  0  0  0  0  0  0  0  0
    3.0823   -4.8260    0.0248 H   0  0  0  0  0  0  0  0  0  0  0  0
    5.4574   -6.6296    3.4692 H   0  0  0  0  0  0  0  0  0  0  0  0
    6.3335   -7.1716    5.9486 H   0  0  0  0  0  0  0  0  0  0  0  0
    5.0224   -5.5365   10.5296 H   0  0  0  0  0  0  0  0  0  0  0  0
    4.2350   -3.9388   10.5802 H   0  0  0  0  0  0  0  0  0  0  0  0
    2.9209   -6.6859   10.6237 H   0  0  0  0  0  0  0  0  0  0  0  0
    2.7963   -5.3870   11.8371 H   0  0  0  0  0  0  0  0  0  0  0  0
    0.1858   -6.1068   12.3541 H   0  0  0  0  0  0  0  0  0  0  0  0
   -2.2581   -5.8405   12.4757 H   0  0  0  0  0  0  0  0  0  0  0  0
   -3.5017   -4.7079   10.7225 H   0  0  0  0  0  0  0  0  0  0  0  0
   -2.3758   -3.7690    8.7338 H   0  0  0  0  0  0  0  0  0  0  0  0
    2.9094   -4.4431    7.0628 H   0  0  0  0  0  0  0  0  0  0  0  0
    3.5259   -2.4492    6.0605 H   0  0  0  0  0  0  0  0  0  0  0  0
    4.1075   -0.0673    6.1736 H   0  0  0  0  0  0  0  0  0  0  0  0
    3.3162   -2.6136   10.3163 H   0  0  0  0  0  0  0  0  0  0  0  0
    3.0860    0.5373   11.0661 H   0  0  0  0  0  0  0  0  0  0  0  0
    4.6654   -0.2439   11.4088 H   0  0  0  0  0  0  0  0  0  0  0  0
    4.4571    2.3517   10.4147 H   0  0  0  0  0  0  0  0  0  0  0  0
    5.8528    1.2842   10.0501 H   0  0  0  0  0  0  0  0  0  0  0  0
    0.4557    1.3601    0.0419 H   0  0  0  0  0  0  0  0  0  0  0  0
  1  2  1  0  0  0  0
  1 46  1  0  0  0  0
  1 47  1  0  0  0  0
  1 48  1  0  0  0  0
  2  7  1  0  0  0  0
  2  3  1  0  0  0  0
  2 79  1  0  0  0  0
  3  4  1  0  0  0  0
  3 49  1  0  0  0  0
  3 50  1  0  0  0  0
  4  5  1  0  0  0  0
  4 51  1  0  0  0  0
  4 52  1  0  0  0  0
  5  6  1  0  0  0  0
  5  8  1  0  0  0  0
  6  7  1  0  0  0  0
  6 53  1  0  0  0  0
  6 54  1  0  0  0  0
  7 55  1  0  0  0  0
  7 56  1  0  0  0  0
  8  9  2  0  0  0  0
  8 10  1  0  0  0  0
 10 15  2  0  0  0  0
 10 11  1  0  0  0  0
 11 12  2  0  0  0  0
 11 57  1  0  0  0  0
 12 13  1  0  0  0  0
 12 58  1  0  0  0  0
 13 14  2  0  0  0  0
 13 16  1  0  0  0  0
 14 15  1  0  0  0  0
 14 59  1  0  0  0  0
 15 60  1  0  0  0  0
 16 20  1  0  0  0  0
 16 17  2  0  0  0  0
 17 18  1  0  0  0  0
 17 61  1  0  0  0  0
 18 19  2  0  0  0  0
 18 62  1  0  0  0  0
 19 20  1  0  0  0  0
 19 21  1  0  0  0  0
 21 22  2  0  0  0  0
 21 23  1  0  0  0  0
 23 36  1  0  0  0  0
 23 24  1  0  0  0  0
 24 25  1  0  0  0  0
 24 63  1  0  0  0  0
 24 64  1  0  0  0  0
 25 26  1  0  0  0  0
 25 65  1  0  0  0  0
 25 66  1  0  0  0  0
 26 35  2  0  0  0  0
 26 27  1  0  0  0  0
 27 32  2  0  0  0  0
 27 28  1  0  0  0  0
 28 29  2  0  0  0  0
 28 67  1  0  0  0  0
 29 30  1  0  0  0  0
 29 68  1  0  0  0  0
 30 31  2  0  0  0  0
 30 69  1  0  0  0  0
 31 32  1  0  0  0  0
 31 70  1  0  0  0  0
 32 33  1  0  0  0  0
 33 34  1  0  0  0  0
 33 35  1  0  0  0  0
 35 36  1  0  0  0  0
 36 37  1  0  0  0  0
 36 71  1  0  0  0  0
 37 42  2  0  0  0  0
 37 38  1  0  0  0  0
 38 39  2  0  0  0  0
 38 72  1  0  0  0  0
 39 40  1  0  0  0  0
 39 73  1  0  0  0  0
 40 45  1  0  0  0  0
 40 41  2  0  0  0  0
 41 42  1  0  0  0  0
 41 43  1  0  0  0  0
 42 74  1  0  0  0  0
 43 44  1  0  0  0  0
 43 75  1  0  0  0  0
 43 76  1  0  0  0  0
 44 45  1  0  0  0  0
 44 77  1  0  0  0  0
 44 78  1  0  0  0  0
M  CHG  1   2   1
M  END
$$$$
CHEMBL433708
  -OEChem-07121202283D

 78 85  0     1  0  0  0  0  0999 V2000
    2.8302   -9.8580   20.1971 C   0  0  0  0  0  0  0  0  0  0  0  0
    3.7521   -8.9163   19.5480 N   0  0  0  0  0  0  0  0  0  0  0  0
    5.1396   -9.1709   19.9578 C   0  0  0  0  0  0  0  0  0  0  0  0
    6.0430   -8.0626   19.4066 C   0  0  0  0  0  0  0  0  0  0  0  0
    5.8312   -7.9663   17.9543 N   0  0  0  0  0  0  0  0  0  0  0  0
    4.4515   -7.8473   17.4587 C   0  0  0  0  0  0  0  0  0  0  0  0
    3.6107   -8.9640   18.0866 C   0  0  0  0  0  0  0  0  0  0  0  0
    6.8737   -7.9860   17.1004 C   0  0  0  0  0  0  0  0  0  0  0  0
    8.0108   -8.0122   17.5298 O   0  0  0  0  0  0  0  0  0  0  0  0
    6.6347   -7.9757   15.6426 C   0  0  0  0  0  0  0  0  0  0  0  0
    5.6986   -7.0948   15.0943 C   0  0  0  0  0  0  0  0  0  0  0  0
    5.4755   -7.0853   13.7366 C   0  0  0  0  0  0  0  0  0  0  0  0
    6.1857   -7.9566   12.9056 C   0  0  0  0  0  0  0  0  0  0  0  0
    7.1223   -8.8374   13.4542 C   0  0  0  0  0  0  0  0  0  0  0  0
    7.3489   -8.8428   14.8114 C   0  0  0  0  0  0  0  0  0  0  0  0
    5.9462   -7.9470   11.4492 C   0  0  0  0  0  0  0  0  0  0  0  0
    6.5679   -8.7483   10.5346 C   0  0  0  0  0  0  0  0  0  0  0  0
    6.0509   -8.4154    9.2781 C   0  0  0  0  0  0  0  0  0  0  0  0
    5.1262   -7.4150    9.4812 C   0  0  0  0  0  0  0  0  0  0  0  0
    5.0760   -7.1524   10.8034 O   0  0  0  0  0  0  0  0  0  0  0  0
    4.3302   -6.7545    8.4413 C   0  0  0  0  0  0  0  0  0  0  0  0
    4.3696   -7.1607    7.2948 O   0  0  0  0  0  0  0  0  0  0  0  0
    3.5551   -5.6976    8.7556 N   0  0  0  0  0  0  0  0  0  0  0  0
    2.8037   -4.9778    7.7162 C   0  0  0  0  0  0  0  0  0  0  0  0
    3.3387   -3.5440    7.6181 C   0  0  0  0  0  0  0  0  0  0  0  0
    3.4979   -2.9841    9.0085 C   0  0  0  0  0  0  0  0  0  0  0  0
    3.6266   -1.5972    9.4081 C   0  0  0  0  0  0  0  0  0  0  0  0
    3.6424   -0.4003    8.6854 C   0  0  0  0  0  0  0  0  0  0  0  0
    3.7841    0.7588    9.4077 C   0  0  0  0  0  0  0  0  0  0  0  0
    3.9066    0.7558   10.7876 C   0  0  0  0  0  0  0  0  0  0  0  0
    3.8940   -0.4136   11.5278 C   0  0  0  0  0  0  0  0  0  0  0  0
    3.7522   -1.6061   10.8211 C   0  0  0  0  0  0  0  0  0  0  0  0
    3.7015   -2.9092   11.2251 N   0  0  0  0  0  0  0  0  0  0  0  0
    3.7649   -3.2113   12.1447 H   0  0  0  0  0  0  0  0  0  0  0  0
    3.5475   -3.7254   10.1364 C   0  0  0  0  0  0  0  0  0  0  0  0
    3.4339   -5.2376   10.1496 C   0  0  1  0  0  0  0  0  0  0  0  0
    2.0973   -5.6499   10.7103 C   0  0  0  0  0  0  0  0  0  0  0  0
    2.0332   -6.5272   11.7773 C   0  0  0  0  0  0  0  0  0  0  0  0
    0.8125   -6.9045   12.2970 C   0  0  0  0  0  0  0  0  0  0  0  0
   -0.3672   -6.4047   11.7506 C   0  0  0  0  0  0  0  0  0  0  0  0
   -0.2902   -5.5302   10.6745 C   0  0  0  0  0  0  0  0  0  0  0  0
    0.9301   -5.1476   10.1629 C   0  0  0  0  0  0  0  0  0  0  0  0
   -1.7130   -5.1791   10.2844 C   0  0  0  0  0  0  0  0  0  0  0  0
   -2.5251   -6.2721   11.0189 C   0  0  0  0  0  0  0  0  0  0  0  0
   -1.6606   -6.6314   12.1101 O   0  0  0  0  0  0  0  0  0  0  0  0
    3.0471  -10.8709   19.8579 H   0  0  0  0  0  0  0  0  0  0  0  0
    2.9556   -9.8022   21.2784 H   0  0  0  0  0  0  0  0  0  0  0  0
    1.8038   -9.5995   19.9366 H   0  0  0  0  0  0  0  0  0  0  0  0
    5.2011   -9.1827   21.0460 H   0  0  0  0  0  0  0  0  0  0  0  0
    5.4641  -10.1341   19.5642 H   0  0  0  0  0  0  0  0  0  0  0  0
    5.7873   -7.1136   19.8777 H   0  0  0  0  0  0  0  0  0  0  0  0
    7.0860   -8.3059   19.6091 H   0  0  0  0  0  0  0  0  0  0  0  0
    4.0428   -6.8775   17.7426 H   0  0  0  0  0  0  0  0  0  0  0  0
    4.4424   -7.9481   16.3734 H   0  0  0  0  0  0  0  0  0  0  0  0
    3.9566   -9.9301   17.7191 H   0  0  0  0  0  0  0  0  0  0  0  0
    2.5635   -8.8258   17.8177 H   0  0  0  0  0  0  0  0  0  0  0  0
    5.1500   -6.4217   15.7364 H   0  0  0  0  0  0  0  0  0  0  0  0
    4.7515   -6.4050   13.3130 H   0  0  0  0  0  0  0  0  0  0  0  0
    7.6711   -9.5106   12.8124 H   0  0  0  0  0  0  0  0  0  0  0  0
    8.0755   -9.5204   15.2349 H   0  0  0  0  0  0  0  0  0  0  0  0
    7.3178   -9.4973   10.7422 H   0  0  0  0  0  0  0  0  0  0  0  0
    6.3243   -8.8574    8.3314 H   0  0  0  0  0  0  0  0  0  0  0  0
    2.9321   -5.4815    6.7582 H   0  0  0  0  0  0  0  0  0  0  0  0
    1.7463   -4.9554    7.9798 H   0  0  0  0  0  0  0  0  0  0  0  0
    4.3051   -3.5490    7.1140 H   0  0  0  0  0  0  0  0  0  0  0  0
    2.6354   -2.9299    7.0558 H   0  0  0  0  0  0  0  0  0  0  0  0
    3.5479   -0.3881    7.6096 H   0  0  0  0  0  0  0  0  0  0  0  0
    3.8010    1.7028    8.8834 H   0  0  0  0  0  0  0  0  0  0  0  0
    4.0152    1.6984   11.3036 H   0  0  0  0  0  0  0  0  0  0  0  0
    3.9898   -0.4024   12.6035 H   0  0  0  0  0  0  0  0  0  0  0  0
    4.2363   -5.6645   10.7513 H   0  0  0  0  0  0  0  0  0  0  0  0
    2.9437   -6.9192   12.2058 H   0  0  0  0  0  0  0  0  0  0  0  0
    0.7713   -7.5897   13.1308 H   0  0  0  0  0  0  0  0  0  0  0  0
    0.9757   -4.4587    9.3324 H   0  0  0  0  0  0  0  0  0  0  0  0
   -1.9818   -4.1861   10.6446 H   0  0  0  0  0  0  0  0  0  0  0  0
   -1.8501   -5.2509    9.2055 H   0  0  0  0  0  0  0  0  0  0  0  0
   -3.4677   -5.8694   11.3894 H   0  0  0  0  0  0  0  0  0  0  0  0
   -2.6993   -7.1277   10.3664 H   0  0  0  0  0  0  0  0  0  0  0  0
  1  2  1  0  0  0  0
  1 46  1  0  0  0  0
  1 47  1  0  0  0  0
  1 48  1  0  0  0  0
  2  7  1  0  0  0  0
  2  3  1  0  0  0  0
  3  4  1  0  0  0  0
  3 49  1  0  0  0  0
  3 50  1  0  0  0  0
  4  5  1  0  0  0  0
  4 51  1  0  0  0  0
  4 52  1  0  0  0  0
  5  6  1  0  0  0  0
  5  8  1  0  0  0  0
  6  7  1  0  0  0  0
  6 53  1  0  0  0  0
  6 54  1  0  0  0  0
  7 55  1  0  0  0  0
  7 56  1  0  0  0  0
  8  9  2  0  0  0  0
  8 10  1  0  0  0  0
 10 15  2  0  0  0  0
 10 11  1  0  0  0  0
 11 12  2  0  0  0  0
 11 57  1  0  0  0  0
 12 13  1  0  0  0  0
 12 58  1  0  0  0  0
 13 14  2  0  0  0  0
 13 16  1  0  0  0  0
 14 15  1  0  0  0  0
 14 59  1  0  0  0  0
 15 60  1  0  0  0  0
 16 20  1  0  0  0  0
 16 17  2  0  0  0  0
 17 18  1  0  0  0  0
 17 61  1  0  0  0  0
 18 19  2  0  0  0  0
 18 62  1  0  0  0  0
 19 20  1  0  0  0  0
 19 21  1  0  0  0  0
 21 22  2  0  0  0  0
 21 23  1  0  0  0  0
 23 36  1  0  0  0  0
 23 24  1  0  0  0  0
 24 25  1  0  0  0  0
 24 63  1  0  0  0  0
 24 64  1  0  0  0  0
 25 26  1  0  0  0  0
 25 65  1  0  0  0  0
 25 66  1  0  0  0  0
 26 35  2  0  0  0  0
 26 27  1  0  0  0  0
 27 32  2  0  0  0  0
 27 28  1  0  0  0  0
 28 29  2  0  0  0  0
 28 67  1  0  0  0  0
 29 30  1  0  0  0  0
 29 68  1  0  0  0  0
 30 31  2  0  0  0  0
 30 69  1  0  0  0  0
 31 32  1  0  0  0  0
 31 70  1  0  0  0  0
 32 33  1  0  0  0  0
 33 34  1  0  0  0  0
 33 35  1  0  0  0  0
 35 36  1  0  0  0  0
 36 37  1  0  0  0  0
 36 71  1  0  0  0  0
 37 42  2  0  0  0  0
 37 38  1  0  0  0  0
 38 39  2  0  0  0  0
 38 72  1  0  0  0  0
 39 40  1  0  0  0  0
 39 73  1  0  0  0  0
 40 45  1  0  0  0  0
 40 41  2  0  0  0  0
 41 42  1  0  0  0  0
 41 43  1  0  0  0  0
 42 74  1  0  0  0  0
 43 44  1  0  0  0  0
 43 75  1  0  0  0  0
 43 76  1  0  0  0  0
 44 45  1  0  0  0  0
 44 77  1  0  0  0  0
 44 78  1  0  0  0  0
M  END
$$$$
CHEMBL365944
  -OEChem-07121202283D

 66 71  0     1  0  0  0  0  0999 V2000
   -0.0187    1.5258    0.0104 C   0  0  0  0  0  0  0  0  0  0  0  0
    0.0021   -0.0041    0.0020 C   0  0  0  0  0  0  0  0  0  0  0  0
    0.7106   -0.4894    1.1889 N   0  0  0  0  0  0  0  0  0  0  0  0
    2.0393   -0.6856    1.1292 C   0  0  0  0  0  0  0  0  0  0  0  0
    2.6431   -0.4599    0.0955 O   0  0  0  0  0  0  0  0  0  0  0  0
    2.7330   -1.1523    2.2640 C   0  0  0  0  0  0  0  0  0  0  0  0
    2.0298   -1.4049    3.4368 C   0  0  0  0  0  0  0  0  0  0  0  0
    2.9024   -1.8307    4.3484 N   0  0  0  0  0  0  0  0  0  0  0  0
    4.1169   -1.8641    3.8265 C   0  0  0  0  0  0  0  0  0  0  0  0
    4.0582   -1.4489    2.5275 N   0  0  0  0  0  0  0  0  0  0  0  0
    5.1812   -1.3394    1.5930 C   0  0  0  0  0  0  0  0  0  0  0  0
    5.7832    0.0387    1.6905 C   0  0  0  0  0  0  0  0  0  0  0  0
    5.3077    1.0580    0.8863 C   0  0  0  0  0  0  0  0  0  0  0  0
    5.8582    2.3220    0.9733 C   0  0  0  0  0  0  0  0  0  0  0  0
    6.8887    2.5683    1.8690 C   0  0  0  0  0  0  0  0  0  0  0  0
    7.3637    1.5440    2.6751 C   0  0  0  0  0  0  0  0  0  0  0  0
    6.8063    0.2830    2.5879 C   0  0  0  0  0  0  0  0  0  0  0  0
    7.4322    3.8109    1.9562 O   0  0  0  0  0  0  0  0  0  0  0  0
    5.3050   -2.2708    4.5148 C   0  0  0  0  0  0  0  0  0  0  0  0
    6.2790   -2.6042    5.0791 C   0  0  0  0  0  0  0  0  0  0  0  0
    7.4670   -3.0109    5.7674 C   0  0  0  0  0  0  0  0  0  0  0  0
    7.3999   -3.4226    7.1019 C   0  0  0  0  0  0  0  0  0  0  0  0
    8.5482   -3.8132    7.7578 C   0  0  0  0  0  0  0  0  0  0  0  0
    9.7651   -3.7981    7.0986 C   0  0  0  0  0  0  0  0  0  0  0  0
    9.8396   -3.3919    5.7777 C   0  0  0  0  0  0  0  0  0  0  0  0
    8.6992   -3.0038    5.1066 C   0  0  0  0  0  0  0  0  0  0  0  0
    0.6583   -1.1922    3.4649 N   0  0  0  0  0  0  0  0  0  0  0  0
   -0.0011   -0.7321    2.3539 C   0  0  0  0  0  0  0  0  0  0  0  0
   -1.2829   -0.5794    2.5464 N   0  3  0  0  0  0  0  0  0  0  0  0
   -1.6475   -0.9443    3.9185 C   0  0  1  0  0  0  0  0  0  0  0  0
   -2.3501   -1.7776    3.9184 H   0  0  0  0  0  0  0  0  0  0  0  0
   -0.3137   -1.3760    4.5560 C   0  0  0  0  0  0  0  0  0  0  0  0
   -2.2437    0.2582    4.6529 C   0  0  0  0  0  0  0  0  0  0  0  0
   -3.5609    0.6296    4.0219 C   0  0  0  0  0  0  0  0  0  0  0  0
   -3.5964    1.5356    2.9785 C   0  0  0  0  0  0  0  0  0  0  0  0
   -4.8047    1.8762    2.3997 C   0  0  0  0  0  0  0  0  0  0  0  0
   -5.9774    1.3106    2.8641 C   0  0  0  0  0  0  0  0  0  0  0  0
   -5.9418    0.4039    3.9070 C   0  0  0  0  0  0  0  0  0  0  0  0
   -4.7331    0.0600    4.4829 C   0  0  0  0  0  0  0  0  0  0  0  0
    1.0039    1.9031    0.0027 H   0  0  0  0  0  0  0  0  0  0  0  0
   -0.5459    1.8868   -0.8726 H   0  0  0  0  0  0  0  0  0  0  0  0
   -0.5289    1.8773    0.9072 H   0  0  0  0  0  0  0  0  0  0  0  0
   -1.0205   -0.3814    0.0098 H   0  0  0  0  0  0  0  0  0  0  0  0
    0.5123   -0.3556   -0.8948 H   0  0  0  0  0  0  0  0  0  0  0  0
    5.9364   -2.0844    1.8437 H   0  0  0  0  0  0  0  0  0  0  0  0
    4.8260   -1.5097    0.5767 H   0  0  0  0  0  0  0  0  0  0  0  0
    4.5055    0.8657    0.1892 H   0  0  0  0  0  0  0  0  0  0  0  0
    5.4869    3.1177    0.3445 H   0  0  0  0  0  0  0  0  0  0  0  0
    8.1658    1.7333    3.3730 H   0  0  0  0  0  0  0  0  0  0  0  0
    7.1727   -0.5136    3.2183 H   0  0  0  0  0  0  0  0  0  0  0  0
    6.9987    4.3853    2.6020 H   0  0  0  0  0  0  0  0  0  0  0  0
    6.4511   -3.4343    7.6178 H   0  0  0  0  0  0  0  0  0  0  0  0
    8.4980   -4.1315    8.7886 H   0  0  0  0  0  0  0  0  0  0  0  0
   10.6612   -4.1045    7.6178 H   0  0  0  0  0  0  0  0  0  0  0  0
   10.7928   -3.3827    5.2700 H   0  0  0  0  0  0  0  0  0  0  0  0
    8.7583   -2.6911    4.0745 H   0  0  0  0  0  0  0  0  0  0  0  0
   -0.3465   -2.4192    4.8700 H   0  0  0  0  0  0  0  0  0  0  0  0
   -0.0734   -0.7271    5.3982 H   0  0  0  0  0  0  0  0  0  0  0  0
   -2.4020    0.0021    5.7005 H   0  0  0  0  0  0  0  0  0  0  0  0
   -1.5575    1.1023    4.5849 H   0  0  0  0  0  0  0  0  0  0  0  0
   -2.6802    1.9775    2.6157 H   0  0  0  0  0  0  0  0  0  0  0  0
   -4.8325    2.5846    1.5850 H   0  0  0  0  0  0  0  0  0  0  0  0
   -6.9214    1.5773    2.4124 H   0  0  0  0  0  0  0  0  0  0  0  0
   -6.8580   -0.0378    4.2700 H   0  0  0  0  0  0  0  0  0  0  0  0
   -4.7049   -0.6512    5.2952 H   0  0  0  0  0  0  0  0  0  0  0  0
   -1.9084   -0.2673    1.8739 H   0  0  0  0  0  0  0  0  0  0  0  0
  1  2  1  0  0  0  0
  1 40  1  0  0  0  0
  1 41  1  0  0  0  0
  1 42  1  0  0  0  0
  2  3  1  0  0  0  0
  2 43  1  0  0  0  0
  2 44  1  0  0  0  0
  3 28  1  0  0  0  0
  3  4  1  0  0  0  0
  4  5  2  0  0  0  0
  4  6  1  0  0  0  0
  6 10  1  0  0  0  0
  6  7  2  0  0  0  0
  7  8  1  0  0  0  0
  7 27  1  0  0  0  0
  8  9  2  0  0  0  0
  9 10  1  0  0  0  0
  9 19  1  0  0  0  0
 10 11  1  0  0  0  0
 11 12  1  0  0  0  0
 11 45  1  0  0  0  0
 11 46  1  0  0  0  0
 12 17  2  0  0  0  0
 12 13  1  0  0  0  0
 13 14  2  0  0  0  0
 13 47  1  0  0  0  0
 14 15  1  0  0  0  0
 14 48  1  0  0  0  0
 15 16  2  0  0  0  0
 15 18  1  0  0  0  0
 16 17  1  0  0  0  0
 16 49  1  0  0  0  0
 17 50  1  0  0  0  0
 18 51  1  0  0  0  0
 19 20  3  0  0  0  0
 20 21  1  0  0  0  0
 21 26  2  0  0  0  0
 21 22  1  0  0  0  0
 22 23  2  0  0  0  0
 22 52  1  0  0  0  0
 23 24  1  0  0  0  0
 23 53  1  0  0  0  0
 24 25  2  0  0  0  0
 24 54  1  0  0  0  0
 25 26  1  0  0  0  0
 25 55  1  0  0  0  0
 26 56  1  0  0  0  0
 27 32  1  0  0  0  0
 27 28  1  0  0  0  0
 28 29  2  0  0  0  0
 29 30  1  0  0  0  0
 29 66  1  0  0  0  0
 30 31  1  0  0  0  0
 30 32  1  0  0  0  0
 30 33  1  0  0  0  0
 32 57  1  0  0  0  0
 32 58  1  0  0  0  0
 33 34  1  0  0  0  0
 33 59  1  0  0  0  0
 33 60  1  0  0  0  0
 34 39  2  0  0  0  0
 34 35  1  0  0  0  0
 35 36  2  0  0  0  0
 35 61  1  0  0  0  0
 36 37  1  0  0  0  0
 36 62  1  0  0  0  0
 37 38  2  0  0  0  0
 37 63  1  0  0  0  0
 38 39  1  0  0  0  0
 38 64  1  0  0  0  0
 39 65  1  0  0  0  0
M  CHG  1  29   1
M  END
$$$$
CHEMBL278354
  -OEChem-07121202283D

 57 61  0     0  0  0  0  0  0999 V2000
   -0.0187    1.5258    0.0104 C   0  0  0  0  0  0  0  0  0  0  0  0
    0.0021   -0.0041    0.0020 C   0  0  0  0  0  0  0  0  0  0  0  0
   -1.4333   -0.5336    0.0129 C   0  0  0  0  0  0  0  0  0  0  0  0
   -1.4139   -1.9625    0.0050 O   0  0  0  0  0  0  0  0  0  0  0  0
   -2.6132   -2.5943    0.0131 C   0  0  0  0  0  0  0  0  0  0  0  0
   -3.7880   -1.8537    0.0225 C   0  0  0  0  0  0  0  0  0  0  0  0
   -5.0089   -2.4903    0.0312 C   0  0  0  0  0  0  0  0  0  0  0  0
   -5.0747   -3.8879    0.0305 C   0  0  0  0  0  0  0  0  0  0  0  0
   -3.9020   -4.6404    0.0206 C   0  0  0  0  0  0  0  0  0  0  0  0
   -2.6675   -3.9964    0.0061 C   0  0  0  0  0  0  0  0  0  0  0  0
   -1.4202   -4.7860   -0.0106 C   0  0  0  0  0  0  0  0  0  0  0  0
   -0.2786   -4.1479   -0.0132 N   0  0  0  0  0  0  0  0  0  0  0  0
    0.9052   -4.8098   -0.0282 C   0  0  0  0  0  0  0  0  0  0  0  0
    2.1140   -4.1224   -0.0304 C   0  0  0  0  0  0  0  0  0  0  0  0
    3.3121   -4.8348   -0.0456 C   0  0  0  0  0  0  0  0  0  0  0  0
    3.2978   -6.2456   -0.0586 C   0  0  0  0  0  0  0  0  0  0  0  0
    2.0997   -6.9347   -0.0561 C   0  0  0  0  0  0  0  0  0  0  0  0
    0.9014   -6.2277   -0.0414 C   0  0  0  0  0  0  0  0  0  0  0  0
   -0.3969   -6.9171   -0.0381 C   0  0  0  0  0  0  0  0  0  0  0  0
   -1.5127   -6.1525   -0.0170 N   0  0  0  0  0  0  0  0  0  0  0  0
   -0.4655   -8.1324   -0.0493 O   0  0  0  0  0  0  0  0  0  0  0  0
    4.6250   -6.6380   -0.0717 N   0  0  0  0  0  0  0  0  0  0  0  0
    5.3802   -5.5082   -0.0665 C   0  0  0  0  0  0  0  0  0  0  0  0
    4.6157   -4.4551   -0.0513 N   0  0  0  0  0  0  0  0  0  0  0  0
    5.1232   -8.0156   -0.0881 C   0  0  0  0  0  0  0  0  0  0  0  0
    5.1675   -8.5169   -1.5086 C   0  0  0  0  0  0  0  0  0  0  0  0
    4.0647   -9.1483   -2.0530 C   0  0  0  0  0  0  0  0  0  0  0  0
    4.1040   -9.6080   -3.3557 C   0  0  0  0  0  0  0  0  0  0  0  0
    5.2485   -9.4359   -4.1157 C   0  0  0  0  0  0  0  0  0  0  0  0
    6.3524   -8.8034   -3.5694 C   0  0  0  0  0  0  0  0  0  0  0  0
    6.3090   -8.3399   -2.2682 C   0  0  0  0  0  0  0  0  0  0  0  0
    5.2883   -9.8853   -5.3891 F   0  0  0  0  0  0  0  0  0  0  0  0
   -6.3865   -4.5652    0.0408 C   0  0  0  0  0  0  0  0  0  0  0  0
   -6.4437   -5.7796    0.0403 O   0  0  0  0  0  0  0  0  0  0  0  0
   -7.5208   -3.8372    0.0509 N   0  0  0  0  0  0  0  0  0  0  0  0
    1.0039    1.9031    0.0027 H   0  0  0  0  0  0  0  0  0  0  0  0
   -0.5459    1.8868   -0.8726 H   0  0  0  0  0  0  0  0  0  0  0  0
   -0.5289    1.8773    0.9072 H   0  0  0  0  0  0  0  0  0  0  0  0
    0.5123   -0.3556   -0.8948 H   0  0  0  0  0  0  0  0  0  0  0  0
    0.5293   -0.3651    0.8851 H   0  0  0  0  0  0  0  0  0  0  0  0
   -1.9435   -0.1821    0.9097 H   0  0  0  0  0  0  0  0  0  0  0  0
   -1.9605   -0.1726   -0.8702 H   0  0  0  0  0  0  0  0  0  0  0  0
   -3.7438   -0.7746    0.0235 H   0  0  0  0  0  0  0  0  0  0  0  0
   -5.9189   -1.9087    0.0389 H   0  0  0  0  0  0  0  0  0  0  0  0
   -3.9504   -5.7194    0.0201 H   0  0  0  0  0  0  0  0  0  0  0  0
    2.1246   -3.0425   -0.0208 H   0  0  0  0  0  0  0  0  0  0  0  0
    2.0936   -8.0146   -0.0658 H   0  0  0  0  0  0  0  0  0  0  0  0
    6.4600   -5.4872   -0.0743 H   0  0  0  0  0  0  0  0  0  0  0  0
    6.1257   -8.0445    0.3388 H   0  0  0  0  0  0  0  0  0  0  0  0
    4.4593   -8.6491    0.5002 H   0  0  0  0  0  0  0  0  0  0  0  0
    3.1722   -9.2827   -1.4598 H   0  0  0  0  0  0  0  0  0  0  0  0
    3.2425  -10.1015   -3.7806 H   0  0  0  0  0  0  0  0  0  0  0  0
    7.2458   -8.6690   -4.1612 H   0  0  0  0  0  0  0  0  0  0  0  0
    7.1683   -7.8425   -1.8434 H   0  0  0  0  0  0  0  0  0  0  0  0
   -7.4752   -2.8683    0.0513 H   0  0  0  0  0  0  0  0  0  0  0  0
   -8.3826   -4.2822    0.0576 H   0  0  0  0  0  0  0  0  0  0  0  0
   -2.3856   -6.5755   -0.0103 H   0  0  0  0  0  0  0  0  0  0  0  0
  1  2  1  0  0  0  0
  1 36  1  0  0  0  0
  1 37  1  0  0  0  0
  1 38  1  0  0  0  0
  2  3  1  0  0  0  0
  2 39  1  0  0  0  0
  2 40  1  0  0  0  0
  3  4  1  0  0  0  0
  3 41  1  0  0  0  0
  3 42  1  0  0  0  0
  4  5  1  0  0  0  0
  5 10  2  0  0  0  0
  5  6  1  0  0  0  0
  6  7  2  0  0  0  0
  6 43  1  0  0  0  0
  7  8  1  0  0  0  0
  7 44  1  0  0  0  0
  8  9  2  0  0  0  0
  8 33  1  0  0  0  0
  9 10  1  0  0  0  0
  9 45  1  0  0  0  0
 10 11  1  0  0  0  0
 11 20  1  0  0  0  0
 11 12  2  0  0  0  0
 12 13  1  0  0  0  0
 13 18  2  0  0  0  0
 13 14  1  0  0  0  0
 14 15  2  0  0  0  0
 14 46  1  0  0  0  0
 15 24  1  0  0  0  0
 15 16  1  0  0  0  0
 16 17  2  0  0  0  0
 16 22  1  0  0  0  0
 17 18  1  0  0  0  0
 17 47  1  0  0  0  0
 18 19  1  0  0  0  0
 19 20  1  0  0  0  0
 19 21  2  0  0  0  0
 20 57  1  0  0  0  0
 22 23  1  0  0  0  0
 22 25  1  0  0  0  0
 23 24  2  0  0  0  0
 23 48  1  0  0  0  0
 25 26  1  0  0  0  0
 25 49  1  0  0  0  0
 25 50  1  0  0  0  0
 26 31  2  0  0  0  0
 26 27  1  0  0  0  0
 27 28  2  0  0  0  0
 27 51  1  0  0  0  0
 28 29  1  0  0  0  0
 28 52  1  0  0  0  0
 29 30  2  0  0  0  0
 29 32  1  0  0  0  0
 30 31  1  0  0  0  0
 30 53  1  0  0  0  0
 31 54  1  0  0  0  0
 33 34  2  0  0  0  0
 33 35  1  0  0  0  0
 35 55  1  0  0  0  0
 35 56  1  0  0  0  0
M  END
$$$$
CHEMBL278354
  -OEChem-07121202283D

 56 60  0     0  0  0  0  0  0999 V2000
   -0.0187    1.5258    0.0104 C   0  0  0  0  0  0  0  0  0  0  0  0
    0.0021   -0.0041    0.0020 C   0  0  0  0  0  0  0  0  0  0  0  0
   -1.4333   -0.5336    0.0129 C   0  0  0  0  0  0  0  0  0  0  0  0
   -1.4139   -1.9625    0.0050 O   0  0  0  0  0  0  0  0  0  0  0  0
   -2.6135   -2.5945    0.0131 C   0  0  0  0  0  0  0  0  0  0  0  0
   -3.7883   -1.8536    0.0225 C   0  0  0  0  0  0  0  0  0  0  0  0
   -5.0092   -2.4903    0.0308 C   0  0  0  0  0  0  0  0  0  0  0  0
   -5.0737   -3.8875    0.0296 C   0  0  0  0  0  0  0  0  0  0  0  0
   -3.8993   -4.6389    0.0201 C   0  0  0  0  0  0  0  0  0  0  0  0
   -2.6675   -3.9947    0.0061 C   0  0  0  0  0  0  0  0  0  0  0  0
   -1.4154   -4.7862   -0.0107 C   0  0  0  0  0  0  0  0  0  0  0  0
   -1.4997   -6.1026   -0.0223 N   0  0  0  0  0  0  0  0  0  0  0  0
   -0.3874   -6.8546   -0.0376 C   0  0  0  0  0  0  0  0  0  0  0  0
   -0.4504   -8.2487   -0.0506 C   0  0  0  0  0  0  0  0  0  0  0  0
    0.7259   -8.9883   -0.0667 C   0  0  0  0  0  0  0  0  0  0  0  0
    1.9788   -8.3334   -0.0699 C   0  0  0  0  0  0  0  0  0  0  0  0
    2.0523   -6.9573   -0.0580 C   0  0  0  0  0  0  0  0  0  0  0  0
    0.8758   -6.2041   -0.0410 C   0  0  0  0  0  0  0  0  0  0  0  0
    0.9009   -4.7882   -0.0280 C   0  0  0  0  0  0  0  0  0  0  0  0
   -0.2500   -4.1385   -0.0188 N   0  0  0  0  0  0  0  0  0  0  0  0
    2.0753   -4.1164   -0.0305 O   0  5  0  0  0  0  0  0  0  0  0  0
    2.9309   -9.3394   -0.0864 N   0  0  0  0  0  0  0  0  0  0  0  0
    2.2657  -10.5255   -0.0926 C   0  0  0  0  0  0  0  0  0  0  0  0
    0.9808  -10.3232   -0.0811 N   0  0  0  0  0  0  0  0  0  0  0  0
    4.3847   -9.1590   -0.0955 C   0  0  0  0  0  0  0  0  0  0  0  0
    4.8785   -8.9876    1.3179 C   0  0  0  0  0  0  0  0  0  0  0  0
    4.9519   -7.7247    1.8755 C   0  0  0  0  0  0  0  0  0  0  0  0
    5.4041   -7.5663    3.1717 C   0  0  0  0  0  0  0  0  0  0  0  0
    5.7838   -8.6731    3.9120 C   0  0  0  0  0  0  0  0  0  0  0  0
    5.7099   -9.9374    3.3525 C   0  0  0  0  0  0  0  0  0  0  0  0
    5.2524  -10.0939    2.0579 C   0  0  0  0  0  0  0  0  0  0  0  0
    6.2265   -8.5193    5.1792 F   0  0  0  0  0  0  0  0  0  0  0  0
   -6.3847   -4.5663    0.0389 C   0  0  0  0  0  0  0  0  0  0  0  0
   -6.4405   -5.7808    0.0379 O   0  0  0  0  0  0  0  0  0  0  0  0
   -7.5197   -3.8396    0.0485 N   0  0  0  0  0  0  0  0  0  0  0  0
    1.0039    1.9031    0.0027 H   0  0  0  0  0  0  0  0  0  0  0  0
   -0.5459    1.8868   -0.8726 H   0  0  0  0  0  0  0  0  0  0  0  0
   -0.5289    1.8773    0.9072 H   0  0  0  0  0  0  0  0  0  0  0  0
    0.5123   -0.3556   -0.8948 H   0  0  0  0  0  0  0  0  0  0  0  0
    0.5293   -0.3651    0.8851 H   0  0  0  0  0  0  0  0  0  0  0  0
   -1.9435   -0.1821    0.9097 H   0  0  0  0  0  0  0  0  0  0  0  0
   -1.9605   -0.1726   -0.8702 H   0  0  0  0  0  0  0  0  0  0  0  0
   -3.7440   -0.7745    0.0238 H   0  0  0  0  0  0  0  0  0  0  0  0
   -5.9195   -1.9092    0.0385 H   0  0  0  0  0  0  0  0  0  0  0  0
   -3.9464   -5.7179    0.0196 H   0  0  0  0  0  0  0  0  0  0  0  0
   -1.4072   -8.7495   -0.0478 H   0  0  0  0  0  0  0  0  0  0  0  0
    3.0132   -6.4644   -0.0601 H   0  0  0  0  0  0  0  0  0  0  0  0
    2.7371  -11.4971   -0.1058 H   0  0  0  0  0  0  0  0  0  0  0  0
    4.8566  -10.0345   -0.5416 H   0  0  0  0  0  0  0  0  0  0  0  0
    4.6373   -8.2734   -0.6786 H   0  0  0  0  0  0  0  0  0  0  0  0
    4.6560   -6.8615    1.2977 H   0  0  0  0  0  0  0  0  0  0  0  0
    5.4617   -6.5796    3.6070 H   0  0  0  0  0  0  0  0  0  0  0  0
    6.0061  -10.8014    3.9289 H   0  0  0  0  0  0  0  0  0  0  0  0
    5.1904  -11.0804    1.6228 H   0  0  0  0  0  0  0  0  0  0  0  0
   -7.4753   -2.8706    0.0493 H   0  0  0  0  0  0  0  0  0  0  0  0
   -8.3811   -4.2856    0.0546 H   0  0  0  0  0  0  0  0  0  0  0  0
  1  2  1  0  0  0  0
  1 36  1  0  0  0  0
  1 37  1  0  0  0  0
  1 38  1  0  0  0  0
  2  3  1  0  0  0  0
  2 39  1  0  0  0  0
  2 40  1  0  0  0  0
  3  4  1  0  0  0  0
  3 41  1  0  0  0  0
  3 42  1  0  0  0  0
  4  5  1  0  0  0  0
  5 10  2  0  0  0  0
  5  6  1  0  0  0  0
  6  7  2  0  0  0  0
  6 43  1  0  0  0  0
  7  8  1  0  0  0  0
  7 44  1  0  0  0  0
  8  9  2  0  0  0  0
  8 33  1  0  0  0  0
  9 10  1  0  0  0  0
  9 45  1  0  0  0  0
 10 11  1  0  0  0  0
 11 20  2  0  0  0  0
 11 12  1  0  0  0  0
 12 13  2  0  0  0  0
 13 18  1  0  0  0  0
 13 14  1  0  0  0  0
 14 15  2  0  0  0  0
 14 46  1  0  0  0  0
 15 24  1  0  0  0  0
 15 16  1  0  0  0  0
 16 17  2  0  0  0  0
 16 22  1  0  0  0  0
 17 18  1  0  0  0  0
 17 47  1  0  0  0  0
 18 19  2  0  0  0  0
 19 20  1  0  0  0  0
 19 21  1  0  0  0  0
 22 23  1  0  0  0  0
 22 25  1  0  0  0  0
 23 24  2  0  0  0  0
 23 48  1  0  0  0  0
 25 26  1  0  0  0  0
 25 49  1  0  0  0  0
 25 50  1  0  0  0  0
 26 31  2  0  0  0  0
 26 27  1  0  0  0  0
 27 28  2  0  0  0  0
 27 51  1  0  0  0  0
 28 29  1  0  0  0  0
 28 52  1  0  0  0  0
 29 30  2  0  0  0  0
 29 32  1  0  0  0  0
 30 31  1  0  0  0  0
 30 53  1  0  0  0  0
 31 54  1  0  0  0  0
 33 34  2  0  0  0  0
 33 35  1  0  0  0  0
 35 55  1  0  0  0  0
 35 56  1  0  0  0  0
M  CHG  1  21  -1
M  END
$$$$
CHEMBL278354
  -OEChem-07121202283D

 57 61  0     0  0  0  0  0  0999 V2000
   -0.0187    1.5258    0.0104 C   0  0  0  0  0  0  0  0  0  0  0  0
    0.0021   -0.0041    0.0020 C   0  0  0  0  0  0  0  0  0  0  0  0
   -1.4333   -0.5336    0.0129 C   0  0  0  0  0  0  0  0  0  0  0  0
   -1.4139   -1.9625    0.0050 O   0  0  0  0  0  0  0  0  0  0  0  0
   -2.6127   -2.5940    0.0131 C   0  0  0  0  0  0  0  0  0  0  0  0
   -3.7880   -1.8535    0.0225 C   0  0  0  0  0  0  0  0  0  0  0  0
   -5.0085   -2.4899    0.0308 C   0  0  0  0  0  0  0  0  0  0  0  0
   -5.0748   -3.8880    0.0302 C   0  0  0  0  0  0  0  0  0  0  0  0
   -3.9030   -4.6409    0.0207 C   0  0  0  0  0  0  0  0  0  0  0  0
   -2.6673   -3.9970    0.0061 C   0  0  0  0  0  0  0  0  0  0  0  0
   -1.4215   -4.7862   -0.0106 C   0  0  0  0  0  0  0  0  0  0  0  0
   -1.5132   -6.1436   -0.0225 N   0  0  0  0  0  0  0  0  0  0  0  0
   -0.3663   -6.9216   -0.0378 C   0  0  0  0  0  0  0  0  0  0  0  0
   -0.4308   -8.3004   -0.0502 C   0  0  0  0  0  0  0  0  0  0  0  0
    0.7494   -9.0464   -0.0659 C   0  0  0  0  0  0  0  0  0  0  0  0
    1.9980   -8.3917   -0.0691 C   0  0  0  0  0  0  0  0  0  0  0  0
    2.0632   -7.0109   -0.0567 C   0  0  0  0  0  0  0  0  0  0  0  0
    0.8859   -6.2706   -0.0411 C   0  0  0  0  0  0  0  0  0  0  0  0
    0.9006   -4.7965   -0.0280 C   0  0  0  0  0  0  0  0  0  0  0  0
   -0.2727   -4.1453   -0.0185 N   0  0  0  0  0  0  0  0  0  0  0  0
    1.9546   -4.1830   -0.0302 O   0  0  0  0  0  0  0  0  0  0  0  0
    2.9521   -9.3942   -0.0855 N   0  0  0  0  0  0  0  0  0  0  0  0
    2.2900  -10.5812   -0.0916 C   0  0  0  0  0  0  0  0  0  0  0  0
    1.0042  -10.3794   -0.0802 N   0  0  0  0  0  0  0  0  0  0  0  0
    4.4054   -9.2101   -0.0953 C   0  0  0  0  0  0  0  0  0  0  0  0
    4.8994   -9.0368    1.3179 C   0  0  0  0  0  0  0  0  0  0  0  0
    4.9697   -7.7734    1.8749 C   0  0  0  0  0  0  0  0  0  0  0  0
    5.4220   -7.6133    3.1708 C   0  0  0  0  0  0  0  0  0  0  0  0
    5.8049   -8.7187    3.9115 C   0  0  0  0  0  0  0  0  0  0  0  0
    5.7340   -9.9835    3.3526 C   0  0  0  0  0  0  0  0  0  0  0  0
    5.2763  -10.1417    2.0582 C   0  0  0  0  0  0  0  0  0  0  0  0
    6.2477   -8.5633    5.1784 F   0  0  0  0  0  0  0  0  0  0  0  0
   -6.3869   -4.5647    0.0400 C   0  0  0  0  0  0  0  0  0  0  0  0
   -6.4446   -5.7792    0.0395 O   0  0  0  0  0  0  0  0  0  0  0  0
   -7.5208   -3.8363    0.0496 N   0  0  0  0  0  0  0  0  0  0  0  0
    1.0039    1.9031    0.0027 H   0  0  0  0  0  0  0  0  0  0  0  0
   -0.5459    1.8868   -0.8726 H   0  0  0  0  0  0  0  0  0  0  0  0
   -0.5289    1.8773    0.9072 H   0  0  0  0  0  0  0  0  0  0  0  0
    0.5123   -0.3556   -0.8948 H   0  0  0  0  0  0  0  0  0  0  0  0
    0.5293   -0.3651    0.8851 H   0  0  0  0  0  0  0  0  0  0  0  0
   -1.9435   -0.1821    0.9097 H   0  0  0  0  0  0  0  0  0  0  0  0
   -1.9605   -0.1726   -0.8702 H   0  0  0  0  0  0  0  0  0  0  0  0
   -3.7439   -0.7744    0.0238 H   0  0  0  0  0  0  0  0  0  0  0  0
   -5.9184   -1.9083    0.0381 H   0  0  0  0  0  0  0  0  0  0  0  0
   -3.9520   -5.7198    0.0206 H   0  0  0  0  0  0  0  0  0  0  0  0
   -1.3887   -8.7993   -0.0473 H   0  0  0  0  0  0  0  0  0  0  0  0
    3.0206   -6.5111   -0.0595 H   0  0  0  0  0  0  0  0  0  0  0  0
    2.7628  -11.5521   -0.1048 H   0  0  0  0  0  0  0  0  0  0  0  0
    4.8794  -10.0846   -0.5411 H   0  0  0  0  0  0  0  0  0  0  0  0
    4.6555   -8.3241   -0.6788 H   0  0  0  0  0  0  0  0  0  0  0  0
    4.6713   -6.9113    1.2968 H   0  0  0  0  0  0  0  0  0  0  0  0
    5.4772   -6.6262    3.6056 H   0  0  0  0  0  0  0  0  0  0  0  0
    6.0326  -10.8464    3.9293 H   0  0  0  0  0  0  0  0  0  0  0  0
    5.2168  -11.1286    1.6236 H   0  0  0  0  0  0  0  0  0  0  0  0
   -7.4748   -2.8674    0.0501 H   0  0  0  0  0  0  0  0  0  0  0  0
   -8.3829   -4.2809    0.0561 H   0  0  0  0  0  0  0  0  0  0  0  0
   -2.3851   -6.5687   -0.0199 H   0  0  0  0  0  0  0  0  0  0  0  0
  1  2  1  0  0  0  0
  1 36  1  0  0  0  0
  1 37  1  0  0  0  0
  1 38  1  0  0  0  0
  2  3  1  0  0  0  0
  2 39  1  0  0  0  0
  2 40  1  0  0  0  0
  3  4  1  0  0  0  0
  3 41  1  0  0  0  0
  3 42  1  0  0  0  0
  4  5  1  0  0  0  0
  5 10  2  0  0  0  0
  5  6  1  0  0  0  0
  6  7  2  0  0  0  0
  6 43  1  0  0  0  0
  7  8  1  0  0  0  0
  7 44  1  0  0  0  0
  8  9  2  0  0  0  0
  8 33  1  0  0  0  0
  9 10  1  0  0  0  0
  9 45  1  0  0  0  0
 10 11  1  0  0  0  0
 11 20  2  0  0  0  0
 11 12  1  0  0  0  0
 12 13  1  0  0  0  0
 12 57  1  0  0  0  0
 13 18  2  0  0  0  0
 13 14  1  0  0  0  0
 14 15  2  0  0  0  0
 14 46  1  0  0  0  0
 15 24  1  0  0  0  0
 15 16  1  0  0  0  0
 16 17  2  0  0  0  0
 16 22  1  0  0  0  0
 17 18  1  0  0  0  0
 17 47  1  0  0  0  0
 18 19  1  0  0  0  0
 19 20  1  0  0  0  0
 19 21  2  0  0  0  0
 22 23  1  0  0  0  0
 22 25  1  0  0  0  0
 23 24  2  0  0  0  0
 23 48  1  0  0  0  0
 25 26  1  0  0  0  0
 25 49  1  0  0  0  0
 25 50  1  0  0  0  0
 26 31  2  0  0  0  0
 26 27  1  0  0  0  0
 27 28  2  0  0  0  0
 27 51  1  0  0  0  0
 28 29  1  0  0  0  0
 28 52  1  0  0  0  0
 29 30  2  0  0  0  0
 29 32  1  0  0  0  0
 30 31  1  0  0  0  0
 30 53  1  0  0  0  0
 31 54  1  0  0  0  0
 33 34  2  0  0  0  0
 33 35  1  0  0  0  0
 35 55  1  0  0  0  0
 35 56  1  0  0  0  0
M  END
$$$$
CHEMBL372476
  -OEChem-07121202283D

 58 63  0     0  0  0  0  0  0999 V2000
   -0.5233    1.4952    0.0330 C   0  0  0  0  0  0  0  0  0  0  0  0
   -0.5104   -0.0118    0.0255 C   0  0  0  0  0  0  0  0  0  0  0  0
   -0.6152   -0.6971   -1.1722 C   0  0  0  0  0  0  0  0  0  0  0  0
   -0.6037   -2.0805   -1.1881 C   0  0  0  0  0  0  0  0  0  0  0  0
   -0.4876   -2.7862   -0.0083 C   0  0  0  0  0  0  0  0  0  0  0  0
   -0.3815   -2.1011    1.2035 C   0  0  0  0  0  0  0  0  0  0  0  0
   -0.3885   -0.7047    1.2118 C   0  0  0  0  0  0  0  0  0  0  0  0
   -0.2569   -2.8501    2.4708 C   0  0  0  0  0  0  0  0  0  0  0  0
   -0.1645   -2.1786    3.5914 N   0  0  0  0  0  0  0  0  0  0  0  0
   -0.0493   -2.7853    4.7802 C   0  0  0  0  0  0  0  0  0  0  0  0
   -0.0247   -4.1911    4.8494 C   0  0  0  0  0  0  0  0  0  0  0  0
    0.0975   -4.8222    6.1020 C   0  0  0  0  0  0  0  0  0  0  0  0
    0.1878   -4.1182    7.1947 N   0  0  0  0  0  0  0  0  0  0  0  0
    0.1690   -2.7217    7.1882 N   0  0  0  0  0  0  0  0  0  0  0  0
    0.0543   -2.0318    6.0323 C   0  0  0  0  0  0  0  0  0  0  0  0
    0.0379   -0.8127    6.0312 O   0  0  0  0  0  0  0  0  0  0  0  0
    0.2743   -1.9934    8.4550 C   0  0  0  0  0  0  0  0  0  0  0  0
   -1.1045   -1.7622    9.0176 C   0  0  0  0  0  0  0  0  0  0  0  0
   -1.8063   -0.6201    8.6797 C   0  0  0  0  0  0  0  0  0  0  0  0
   -3.0710   -0.4080    9.1957 C   0  0  0  0  0  0  0  0  0  0  0  0
   -3.6342   -1.3381   10.0494 C   0  0  0  0  0  0  0  0  0  0  0  0
   -2.9328   -2.4805   10.3866 C   0  0  0  0  0  0  0  0  0  0  0  0
   -1.6697   -2.6947    9.8671 C   0  0  0  0  0  0  0  0  0  0  0  0
    0.1236   -6.3270    6.1797 C   0  0  0  0  0  0  0  0  0  0  0  0
   -0.1284   -4.9398    3.5970 C   0  0  0  0  0  0  0  0  0  0  0  0
   -0.2481   -4.2226    2.4272 N   0  0  0  0  0  0  0  0  0  0  0  0
   -0.3365   -5.1444    1.3781 N   0  0  0  0  0  0  0  0  0  0  0  0
   -0.2790   -6.3656    1.8772 C   0  0  0  0  0  0  0  0  0  0  0  0
   -0.1409   -6.2746    3.2685 C   0  0  0  0  0  0  0  0  0  0  0  0
   -0.3404   -7.6247    1.0939 C   0  0  0  0  0  0  0  0  0  0  0  0
   -0.2753   -8.8558    1.7430 C   0  0  0  0  0  0  0  0  0  0  0  0
   -0.3334  -10.0237    1.0096 C   0  0  0  0  0  0  0  0  0  0  0  0
   -0.4556   -9.9734   -0.3672 C   0  0  0  0  0  0  0  0  0  0  0  0
   -0.5207   -8.7539   -1.0167 C   0  0  0  0  0  0  0  0  0  0  0  0
   -0.4693   -7.5799   -0.2927 C   0  0  0  0  0  0  0  0  0  0  0  0
    0.4963    1.8677   -0.0649 H   0  0  0  0  0  0  0  0  0  0  0  0
   -1.1242    1.8575   -0.8011 H   0  0  0  0  0  0  0  0  0  0  0  0
   -0.9514    1.8502    0.9704 H   0  0  0  0  0  0  0  0  0  0  0  0
   -0.7067   -0.1496   -2.0986 H   0  0  0  0  0  0  0  0  0  0  0  0
   -0.6862   -2.6091   -2.1263 H   0  0  0  0  0  0  0  0  0  0  0  0
   -0.4791   -3.8660   -0.0222 H   0  0  0  0  0  0  0  0  0  0  0  0
   -0.3023   -0.1685    2.1454 H   0  0  0  0  0  0  0  0  0  0  0  0
    0.8620   -2.5783    9.1626 H   0  0  0  0  0  0  0  0  0  0  0  0
    0.7622   -1.0340    8.2831 H   0  0  0  0  0  0  0  0  0  0  0  0
   -1.3663    0.1065    8.0127 H   0  0  0  0  0  0  0  0  0  0  0  0
   -3.6190    0.4846    8.9322 H   0  0  0  0  0  0  0  0  0  0  0  0
   -4.6220   -1.1720   10.4531 H   0  0  0  0  0  0  0  0  0  0  0  0
   -3.3726   -3.2070   11.0538 H   0  0  0  0  0  0  0  0  0  0  0  0
   -1.1232   -3.5891   10.1277 H   0  0  0  0  0  0  0  0  0  0  0  0
    0.9703   -6.7057    5.6071 H   0  0  0  0  0  0  0  0  0  0  0  0
    0.2219   -6.6354    7.2206 H   0  0  0  0  0  0  0  0  0  0  0  0
   -0.8023   -6.7283    5.7677 H   0  0  0  0  0  0  0  0  0  0  0  0
   -0.0676   -7.1025    3.9582 H   0  0  0  0  0  0  0  0  0  0  0  0
   -0.1792   -8.8962    2.8179 H   0  0  0  0  0  0  0  0  0  0  0  0
   -0.2830  -10.9785    1.5118 H   0  0  0  0  0  0  0  0  0  0  0  0
   -0.5000  -10.8896   -0.9373 H   0  0  0  0  0  0  0  0  0  0  0  0
   -0.6158   -8.7203   -2.0920 H   0  0  0  0  0  0  0  0  0  0  0  0
   -0.5247   -6.6283   -0.8004 H   0  0  0  0  0  0  0  0  0  0  0  0
  1  2  1  0  0  0  0
  1 36  1  0  0  0  0
  1 37  1  0  0  0  0
  1 38  1  0  0  0  0
  2  7  2  0  0  0  0
  2  3  1  0  0  0  0
  3  4  2  0  0  0  0
  3 39  1  0  0  0  0
  4  5  1  0  0  0  0
  4 40  1  0  0  0  0
  5  6  2  0  0  0  0
  5 41  1  0  0  0  0
  6  7  1  0  0  0  0
  6  8  1  0  0  0  0
  7 42  1  0  0  0  0
  8 26  1  0  0  0  0
  8  9  2  0  0  0  0
  9 10  1  0  0  0  0
 10 15  1  0  0  0  0
 10 11  2  0  0  0  0
 11 12  1  0  0  0  0
 11 25  1  0  0  0  0
 12 13  2  0  0  0  0
 12 24  1  0  0  0  0
 13 14  1  0  0  0  0
 14 15  1  0  0  0  0
 14 17  1  0  0  0  0
 15 16  2  0  0  0  0
 17 18  1  0  0  0  0
 17 43  1  0  0  0  0
 17 44  1  0  0  0  0
 18 23  2  0  0  0  0
 18 19  1  0  0  0  0
 19 20  2  0  0  0  0
 19 45  1  0  0  0  0
 20 21  1  0  0  0  0
 20 46  1  0  0  0  0
 21 22  2  0  0  0  0
 21 47  1  0  0  0  0
 22 23  1  0  0  0  0
 22 48  1  0  0  0  0
 23 49  1  0  0  0  0
 24 50  1  0  0  0  0
 24 51  1  0  0  0  0
 24 52  1  0  0  0  0
 25 29  2  0  0  0  0
 25 26  1  0  0  0  0
 26 27  1  0  0  0  0
 27 28  2  0  0  0  0
 28 29  1  0  0  0  0
 28 30  1  0  0  0  0
 29 53  1  0  0  0  0
 30 35  2  0  0  0  0
 30 31  1  0  0  0  0
 31 32  2  0  0  0  0
 31 54  1  0  0  0  0
 32 33  1  0  0  0  0
 32 55  1  0  0  0  0
 33 34  2  0  0  0  0
 33 56  1  0  0  0  0
 34 35  1  0  0  0  0
 34 57  1  0  0  0  0
 35 58  1  0  0  0  0
M  END
$$$$
CHEMBL213113
  -OEChem-07121202283D

 45 49  0     0  0  0  0  0  0999 V2000
   -0.0184    1.5028    0.0103 C   0  0  0  0  0  0  0  0  0  0  0  0
    0.0021   -0.0041    0.0020 C   0  0  0  0  0  0  0  0  0  0  0  0
   -1.2117   -0.7183    0.0039 C   0  0  0  0  0  0  0  0  0  0  0  0
   -2.5168   -0.0583    0.0137 C   0  0  0  0  0  0  0  0  0  0  0  0
   -2.9381    1.2500    0.0227 C   0  0  0  0  0  0  0  0  0  0  0  0
   -4.3392    1.2422    0.0288 C   0  0  0  0  0  0  0  0  0  0  0  0
   -4.7544   -0.0114    0.0238 N   0  0  0  0  0  0  0  0  0  0  0  0
   -3.6395   -0.8573    0.0142 N   0  0  0  0  0  0  0  0  0  0  0  0
   -3.5025   -2.2147    0.0058 C   0  0  0  0  0  0  0  0  0  0  0  0
   -2.3459   -2.8077   -0.0025 N   0  0  0  0  0  0  0  0  0  0  0  0
   -1.1897   -2.1243   -0.0043 C   0  0  0  0  0  0  0  0  0  0  0  0
    0.1123   -2.7930   -0.0141 C   0  0  0  0  0  0  0  0  0  0  0  0
    0.1898   -4.0099   -0.0219 O   0  0  0  0  0  0  0  0  0  0  0  0
    1.2261   -2.0282   -0.0148 N   0  0  0  0  0  0  0  0  0  0  0  0
    1.1425   -0.6340   -0.0123 N   0  0  0  0  0  0  0  0  0  0  0  0
    2.5423   -2.6715   -0.0246 C   0  0  0  0  0  0  0  0  0  0  0  0
    2.9870   -2.8838   -1.4487 C   0  0  0  0  0  0  0  0  0  0  0  0
    2.6605   -4.0544   -2.1075 C   0  0  0  0  0  0  0  0  0  0  0  0
    3.0685   -4.2492   -3.4138 C   0  0  0  0  0  0  0  0  0  0  0  0
    3.8027   -3.2732   -4.0615 C   0  0  0  0  0  0  0  0  0  0  0  0
    4.1284   -2.1023   -3.4029 C   0  0  0  0  0  0  0  0  0  0  0  0
    3.7167   -1.9057   -2.0980 C   0  0  0  0  0  0  0  0  0  0  0  0
   -4.7473   -3.0642    0.0066 C   0  0  0  0  0  0  0  0  0  0  0  0
   -5.2115    2.4429    0.0400 C   0  0  0  0  0  0  0  0  0  0  0  0
   -6.5925    2.3179    0.1549 C   0  0  0  0  0  0  0  0  0  0  0  0
   -7.3542    3.4351    0.1618 C   0  0  0  0  0  0  0  0  0  0  0  0
   -6.1325    4.7266    0.0040 S   0  0  0  0  0  0  0  0  0  0  0  0
   -4.6760    3.6965   -0.0566 C   0  0  0  0  0  0  0  0  0  0  0  0
    1.0042    1.8801    0.0026 H   0  0  0  0  0  0  0  0  0  0  0  0
   -0.5455    1.8639   -0.8728 H   0  0  0  0  0  0  0  0  0  0  0  0
   -0.5286    1.8543    0.9071 H   0  0  0  0  0  0  0  0  0  0  0  0
   -2.3046    2.1247    0.0247 H   0  0  0  0  0  0  0  0  0  0  0  0
    3.2618   -2.0344    0.4897 H   0  0  0  0  0  0  0  0  0  0  0  0
    2.4802   -3.6335    0.4840 H   0  0  0  0  0  0  0  0  0  0  0  0
    2.0870   -4.8169   -1.6015 H   0  0  0  0  0  0  0  0  0  0  0  0
    2.8141   -5.1640   -3.9283 H   0  0  0  0  0  0  0  0  0  0  0  0
    4.1220   -3.4257   -5.0818 H   0  0  0  0  0  0  0  0  0  0  0  0
    4.7022   -1.3399   -3.9088 H   0  0  0  0  0  0  0  0  0  0  0  0
    3.9680   -0.9892   -1.5848 H   0  0  0  0  0  0  0  0  0  0  0  0
   -5.0521   -3.2631   -1.0208 H   0  0  0  0  0  0  0  0  0  0  0  0
   -4.5434   -4.0071    0.5141 H   0  0  0  0  0  0  0  0  0  0  0  0
   -5.5467   -2.5369    0.5272 H   0  0  0  0  0  0  0  0  0  0  0  0
   -7.0495    1.3427    0.2369 H   0  0  0  0  0  0  0  0  0  0  0  0
   -8.4275    3.5234    0.2422 H   0  0  0  0  0  0  0  0  0  0  0  0
   -3.6401    3.9883   -0.1471 H   0  0  0  0  0  0  0  0  0  0  0  0
  1  2  1  0  0  0  0
  1 29  1  0  0  0  0
  1 30  1  0  0  0  0
  1 31  1  0  0  0  0
  2 15  2  0  0  0  0
  2  3  1  0  0  0  0
  3 11  2  0  0  0  0
  3  4  1  0  0  0  0
  4  8  1  0  0  0  0
  4  5  2  0  0  0  0
  5  6  1  0  0  0  0
  5 32  1  0  0  0  0
  6  7  2  0  0  0  0
  6 24  1  0  0  0  0
  7  8  1  0  0  0  0
  8  9  1  0  0  0  0
  9 10  2  0  0  0  0
  9 23  1  0  0  0  0
 10 11  1  0  0  0  0
 11 12  1  0  0  0  0
 12 13  2  0  0  0  0
 12 14  1  0  0  0  0
 14 15  1  0  0  0  0
 14 16  1  0  0  0  0
 16 17  1  0  0  0  0
 16 33  1  0  0  0  0
 16 34  1  0  0  0  0
 17 22  2  0  0  0  0
 17 18  1  0  0  0  0
 18 19  2  0  0  0  0
 18 35  1  0  0  0  0
 19 20  1  0  0  0  0
 19 36  1  0  0  0  0
 20 21  2  0  0  0  0
 20 37  1  0  0  0  0
 21 22  1  0  0  0  0
 21 38  1  0  0  0  0
 22 39  1  0  0  0  0
 23 40  1  0  0  0  0
 23 41  1  0  0  0  0
 23 42  1  0  0  0  0
 24 28  2  0  0  0  0
 24 25  1  0  0  0  0
 25 26  2  0  0  0  0
 25 43  1  0  0  0  0
 26 27  1  0  0  0  0
 26 44  1  0  0  0  0
 27 28  1  0  0  0  0
 28 45  1  0  0  0  0
M  END
$$$$
CHEMBL462983
  -OEChem-07121202283D

 60 65  0     1  0  0  0  0  0999 V2000
    0.2957    1.5363    0.1281 C   0  0  0  0  0  0  0  0  0  0  0  0
    0.3752    0.0084    0.1417 C   0  0  0  0  0  0  0  0  0  0  0  0
    0.6710   -0.4649   -1.1738 O   0  0  0  0  0  0  0  0  0  0  0  0
    0.7768   -1.8100   -1.3363 C   0  0  0  0  0  0  0  0  0  0  0  0
    0.5939   -2.6572   -0.2530 C   0  0  0  0  0  0  0  0  0  0  0  0
    0.7015   -4.0242   -0.4209 C   0  0  0  0  0  0  0  0  0  0  0  0
    0.9917   -4.5482   -1.6671 C   0  0  0  0  0  0  0  0  0  0  0  0
    1.1749   -3.7059   -2.7482 C   0  0  0  0  0  0  0  0  0  0  0  0
    1.0623   -2.3385   -2.5868 C   0  0  0  0  0  0  0  0  0  0  0  0
    1.1090   -6.0397   -1.8472 C   0  0  1  0  0  0  0  0  0  0  0  0
    1.0593   -6.5383   -0.8792 H   0  0  0  0  0  0  0  0  0  0  0  0
    0.0004   -6.5439   -2.7500 C   0  0  0  0  0  0  0  0  0  0  0  0
    0.2094   -7.0250   -3.9936 C   0  0  0  0  0  0  0  0  0  0  0  0
   -1.0911   -7.3918   -4.5236 C   0  0  0  0  0  0  0  0  0  0  0  0
   -1.4940   -7.9325   -5.7484 C   0  0  0  0  0  0  0  0  0  0  0  0
   -2.8382   -8.1591   -5.9137 C   0  0  0  0  0  0  0  0  0  0  0  0
   -3.7608   -7.8702   -4.9214 C   0  0  0  0  0  0  0  0  0  0  0  0
   -3.3894   -7.3338   -3.7007 C   0  0  0  0  0  0  0  0  0  0  0  0
   -2.0309   -7.0929   -3.5048 C   0  0  0  0  0  0  0  0  0  0  0  0
   -1.3345   -6.5833   -2.4474 N   0  0  0  0  0  0  0  0  0  0  0  0
   -1.7258   -6.2933   -1.6085 H   0  0  0  0  0  0  0  0  0  0  0  0
    1.5478   -7.1577   -4.6758 C   0  0  0  0  0  0  0  0  0  0  0  0
    2.5650   -6.2433   -3.9830 C   0  0  1  0  0  0  0  0  0  0  0  0
    2.4675   -5.2100   -4.3160 H   0  0  0  0  0  0  0  0  0  0  0  0
    2.3721   -6.3686   -2.5194 N   0  0  0  0  0  0  0  0  0  0  0  0
    3.5146   -6.8249   -2.0031 C   0  0  0  0  0  0  0  0  0  0  0  0
    3.7055   -6.9843   -0.8134 O   0  0  0  0  0  0  0  0  0  0  0  0
    4.4276   -7.0876   -2.9492 N   0  0  0  0  0  0  0  0  0  0  0  0
    3.9654   -6.7755   -4.2099 C   0  0  0  0  0  0  0  0  0  0  0  0
    4.5375   -6.8984   -5.2717 O   0  0  0  0  0  0  0  0  0  0  0  0
    5.7609   -7.6306   -2.6777 C   0  0  0  0  0  0  0  0  0  0  0  0
    5.7059   -9.1592   -2.7129 C   0  0  0  0  0  0  0  0  0  0  0  0
    7.0392   -9.7021   -2.4414 N   0  0  0  0  0  0  0  0  0  0  0  0
    7.9919   -9.9743   -3.3780 C   0  0  0  0  0  0  0  0  0  0  0  0
    9.0793  -10.4593   -2.7447 C   0  0  0  0  0  0  0  0  0  0  0  0
    8.7871  -10.4876   -1.3667 C   0  0  0  0  0  0  0  0  0  0  0  0
    7.5346  -10.0133   -1.2098 C   0  0  0  0  0  0  0  0  0  0  0  0
    1.2507    1.9469   -0.1996 H   0  0  0  0  0  0  0  0  0  0  0  0
   -0.4904    1.8531   -0.5574 H   0  0  0  0  0  0  0  0  0  0  0  0
    0.0700    1.8973    1.1315 H   0  0  0  0  0  0  0  0  0  0  0  0
    1.1612   -0.3084    0.8271 H   0  0  0  0  0  0  0  0  0  0  0  0
   -0.5799   -0.4022    0.4693 H   0  0  0  0  0  0  0  0  0  0  0  0
    0.3679   -2.2484    0.7207 H   0  0  0  0  0  0  0  0  0  0  0  0
    0.5592   -4.6842    0.4221 H   0  0  0  0  0  0  0  0  0  0  0  0
    1.4019   -4.1176   -3.7205 H   0  0  0  0  0  0  0  0  0  0  0  0
    1.2011   -1.6813   -3.4325 H   0  0  0  0  0  0  0  0  0  0  0  0
   -0.7818   -8.1613   -6.5274 H   0  0  0  0  0  0  0  0  0  0  0  0
   -3.1873   -8.5762   -6.8467 H   0  0  0  0  0  0  0  0  0  0  0  0
   -4.8058   -8.0701   -5.1069 H   0  0  0  0  0  0  0  0  0  0  0  0
   -4.1187   -7.1121   -2.9356 H   0  0  0  0  0  0  0  0  0  0  0  0
    1.8868   -8.1918   -4.6134 H   0  0  0  0  0  0  0  0  0  0  0  0
    1.4527   -6.8686   -5.7225 H   0  0  0  0  0  0  0  0  0  0  0  0
    6.4593   -7.2746   -3.4351 H   0  0  0  0  0  0  0  0  0  0  0  0
    6.0936   -7.3015   -1.6933 H   0  0  0  0  0  0  0  0  0  0  0  0
    5.0075   -9.5151   -1.9555 H   0  0  0  0  0  0  0  0  0  0  0  0
    5.3731   -9.4882   -3.6973 H   0  0  0  0  0  0  0  0  0  0  0  0
    7.8927   -9.8274   -4.4433 H   0  0  0  0  0  0  0  0  0  0  0  0
   10.0040  -10.7691   -3.2086 H   0  0  0  0  0  0  0  0  0  0  0  0
    9.4468  -10.8231   -0.5802 H   0  0  0  0  0  0  0  0  0  0  0  0
    7.0129   -9.9014   -0.2708 H   0  0  0  0  0  0  0  0  0  0  0  0
  1  2  1  0  0  0  0
  1 38  1  0  0  0  0
  1 39  1  0  0  0  0
  1 40  1  0  0  0  0
  2  3  1  0  0  0  0
  2 41  1  0  0  0  0
  2 42  1  0  0  0  0
  3  4  1  0  0  0  0
  4  9  2  0  0  0  0
  4  5  1  0  0  0  0
  5  6  2  0  0  0  0
  5 43  1  0  0  0  0
  6  7  1  0  0  0  0
  6 44  1  0  0  0  0
  7  8  2  0  0  0  0
  7 10  1  0  0  0  0
  8  9  1  0  0  0  0
  8 45  1  0  0  0  0
  9 46  1  0  0  0  0
 10 11  1  0  0  0  0
 10 25  1  0  0  0  0
 10 12  1  0  0  0  0
 12 20  1  0  0  0  0
 12 13  2  0  0  0  0
 13 14  1  0  0  0  0
 13 22  1  0  0  0  0
 14 19  2  0  0  0  0
 14 15  1  0  0  0  0
 15 16  2  0  0  0  0
 15 47  1  0  0  0  0
 16 17  1  0  0  0  0
 16 48  1  0  0  0  0
 17 18  2  0  0  0  0
 17 49  1  0  0  0  0
 18 19  1  0  0  0  0
 18 50  1  0  0  0  0
 19 20  1  0  0  0  0
 20 21  1  0  0  0  0
 22 23  1  0  0  0  0
 22 51  1  0  0  0  0
 22 52  1  0  0  0  0
 23 24  1  0  0  0  0
 23 29  1  0  0  0  0
 23 25  1  0  0  0  0
 25 26  1  0  0  0  0
 26 27  2  0  0  0  0
 26 28  1  0  0  0  0
 28 29  1  0  0  0  0
 28 31  1  0  0  0  0
 29 30  2  0  0  0  0
 31 32  1  0  0  0  0
 31 53  1  0  0  0  0
 31 54  1  0  0  0  0
 32 33  1  0  0  0  0
 32 55  1  0  0  0  0
 32 56  1  0  0  0  0
 33 37  1  0  0  0  0
 33 34  1  0  0  0  0
 34 35  2  0  0  0  0
 34 57  1  0  0  0  0
 35 36  1  0  0  0  0
 35 58  1  0  0  0  0
 36 37  2  0  0  0  0
 36 59  1  0  0  0  0
 37 60  1  0  0  0  0
M  END
$$$$
CHEMBL146501
  -OEChem-07121202283D

 76 81  0     1  0  0  0  0  0999 V2000
   -0.0157    1.5215   -0.0834 C   0  0  0  0  0  0  0  0  0  0  0  0
    0.0041   -0.0072   -0.0238 C   0  0  0  0  0  0  0  0  0  0  0  0
   -1.4314   -0.5365   -0.0290 C   0  0  0  0  0  0  0  0  0  0  0  0
   -1.4129   -1.9643    0.0267 O   0  0  0  0  0  0  0  0  0  0  0  0
   -2.6124   -2.5956    0.0297 C   0  0  0  0  0  0  0  0  0  0  0  0
   -3.7865   -1.8559   -0.0257 C   0  0  0  0  0  0  0  0  0  0  0  0
   -5.0076   -2.4920   -0.0225 C   0  0  0  0  0  0  0  0  0  0  0  0
   -5.0745   -3.8884    0.0367 C   0  0  0  0  0  0  0  0  0  0  0  0
   -3.9024   -4.6401    0.0921 C   0  0  0  0  0  0  0  0  0  0  0  0
   -2.6676   -3.9967    0.0830 C   0  0  0  0  0  0  0  0  0  0  0  0
   -1.4208   -4.7857    0.1354 C   0  0  0  0  0  0  0  0  0  0  0  0
   -0.2791   -4.1478    0.1360 N   0  0  0  0  0  0  0  0  0  0  0  0
    0.9042   -4.8091    0.1827 C   0  0  0  0  0  0  0  0  0  0  0  0
    2.1131   -4.1220    0.1833 C   0  0  0  0  0  0  0  0  0  0  0  0
    3.3106   -4.8337    0.2325 C   0  0  0  0  0  0  0  0  0  0  0  0
    3.2956   -6.2438    0.2813 C   0  0  0  0  0  0  0  0  0  0  0  0
    2.0974   -6.9327    0.2813 C   0  0  0  0  0  0  0  0  0  0  0  0
    0.8997   -6.2263    0.2319 C   0  0  0  0  0  0  0  0  0  0  0  0
   -0.3987   -6.9154    0.2300 C   0  0  0  0  0  0  0  0  0  0  0  0
   -1.5141   -6.1512    0.1867 N   0  0  0  0  0  0  0  0  0  0  0  0
   -0.4679   -8.1301    0.2706 O   0  0  0  0  0  0  0  0  0  0  0  0
    4.6224   -6.6358    0.3219 N   0  0  0  0  0  0  0  0  0  0  0  0
    5.3780   -5.5065    0.2980 C   0  0  0  0  0  0  0  0  0  0  0  0
    4.6142   -4.4540    0.2458 N   0  0  0  0  0  0  0  0  0  0  0  0
    5.1199   -8.0125    0.3799 C   0  0  0  0  0  0  0  0  0  0  0  0
    5.2028   -8.5759   -1.0153 C   0  0  0  0  0  0  0  0  0  0  0  0
    4.1148   -9.2312   -1.5614 C   0  0  0  0  0  0  0  0  0  0  0  0
    4.1895   -9.7479   -2.8409 C   0  0  0  0  0  0  0  0  0  0  0  0
    5.3545   -9.6090   -3.5761 C   0  0  0  0  0  0  0  0  0  0  0  0
    6.4435   -8.9525   -3.0282 C   0  0  0  0  0  0  0  0  0  0  0  0
    6.3647   -8.4320   -1.7504 C   0  0  0  0  0  0  0  0  0  0  0  0
    5.4289  -10.1141   -4.8270 F   0  0  0  0  0  0  0  0  0  0  0  0
   -6.3865   -4.5652    0.0408 C   0  0  0  0  0  0  0  0  0  0  0  0
   -6.4465   -5.7756   -0.0565 O   0  0  0  0  0  0  0  0  0  0  0  0
   -7.5179   -3.8413    0.1526 N   0  0  0  0  0  0  0  0  0  0  0  0
   -7.5985   -2.3733    0.1609 C   0  0  0  0  0  0  0  0  0  0  0  0
   -9.0851   -1.9970    0.3340 C   0  0  0  0  0  0  0  0  0  0  0  0
   -9.6927   -3.2697    0.9809 C   0  0  2  0  0  0  0  0  0  0  0  0
   -9.5270   -3.2776    2.0582 H   0  0  0  0  0  0  0  0  0  0  0  0
   -8.8801   -4.3902    0.2803 C   0  0  0  0  0  0  0  0  0  0  0  0
  -11.1237   -3.3864    0.6702 N   0  3  0  0  0  0  0  0  0  0  0  0
  -11.6636   -4.6000    1.2976 C   0  0  0  0  0  0  0  0  0  0  0  0
  -11.8346   -2.2098    1.1879 C   0  0  0  0  0  0  0  0  0  0  0  0
    1.0070    1.8986   -0.0797 H   0  0  0  0  0  0  0  0  0  0  0  0
   -0.5182    1.8430   -0.9957 H   0  0  0  0  0  0  0  0  0  0  0  0
   -0.5501    1.9120    0.7827 H   0  0  0  0  0  0  0  0  0  0  0  0
    0.5384   -0.3977   -0.8899 H   0  0  0  0  0  0  0  0  0  0  0  0
    0.5066   -0.3287    0.8884 H   0  0  0  0  0  0  0  0  0  0  0  0
   -1.9658   -0.1460    0.8371 H   0  0  0  0  0  0  0  0  0  0  0  0
   -1.9339   -0.2149   -0.9412 H   0  0  0  0  0  0  0  0  0  0  0  0
   -3.7416   -0.7778   -0.0712 H   0  0  0  0  0  0  0  0  0  0  0  0
   -5.9171   -1.9111   -0.0654 H   0  0  0  0  0  0  0  0  0  0  0  0
   -3.9516   -5.7180    0.1379 H   0  0  0  0  0  0  0  0  0  0  0  0
    2.1242   -3.0427    0.1456 H   0  0  0  0  0  0  0  0  0  0  0  0
    2.0908   -8.0120    0.3191 H   0  0  0  0  0  0  0  0  0  0  0  0
    6.4576   -5.4854    0.3189 H   0  0  0  0  0  0  0  0  0  0  0  0
    6.1102   -8.0221    0.8351 H   0  0  0  0  0  0  0  0  0  0  0  0
    4.4396   -8.6198    0.9771 H   0  0  0  0  0  0  0  0  0  0  0  0
    3.2063   -9.3398   -0.9876 H   0  0  0  0  0  0  0  0  0  0  0  0
    3.3396  -10.2601   -3.2672 H   0  0  0  0  0  0  0  0  0  0  0  0
    7.3529   -8.8439   -3.6006 H   0  0  0  0  0  0  0  0  0  0  0  0
    7.2125   -7.9160   -1.3245 H   0  0  0  0  0  0  0  0  0  0  0  0
   -7.0161   -1.9748    0.9916 H   0  0  0  0  0  0  0  0  0  0  0  0
   -7.2229   -1.9760   -0.7821 H   0  0  0  0  0  0  0  0  0  0  0  0
   -9.1910   -1.1390    0.9979 H   0  0  0  0  0  0  0  0  0  0  0  0
   -9.5475   -1.7974   -0.6326 H   0  0  0  0  0  0  0  0  0  0  0  0
   -9.2963   -4.6051   -0.7040 H   0  0  0  0  0  0  0  0  0  0  0  0
   -8.8701   -5.2911    0.8937 H   0  0  0  0  0  0  0  0  0  0  0  0
  -11.1361   -5.4731    0.9134 H   0  0  0  0  0  0  0  0  0  0  0  0
  -11.5299   -4.5409    2.3777 H   0  0  0  0  0  0  0  0  0  0  0  0
  -12.7254   -4.6866    1.0671 H   0  0  0  0  0  0  0  0  0  0  0  0
  -11.4340   -1.3093    0.7224 H   0  0  0  0  0  0  0  0  0  0  0  0
  -12.8965   -2.2963    0.9574 H   0  0  0  0  0  0  0  0  0  0  0  0
  -11.7010   -2.1506    2.2681 H   0  0  0  0  0  0  0  0  0  0  0  0
  -11.2474   -3.4411   -0.3297 H   0  0  0  0  0  0  0  0  0  0  0  0
   -2.3872   -6.5739    0.1882 H   0  0  0  0  0  0  0  0  0  0  0  0
  1  2  1  0  0  0  0
  1 44  1  0  0  0  0
  1 45  1  0  0  0  0
  1 46  1  0  0  0  0
  2  3  1  0  0  0  0
  2 47  1  0  0  0  0
  2 48  1  0  0  0  0
  3  4  1  0  0  0  0
  3 49  1  0  0  0  0
  3 50  1  0  0  0  0
  4  5  1  0  0  0  0
  5 10  2  0  0  0  0
  5  6  1  0  0  0  0
  6  7  2  0  0  0  0
  6 51  1  0  0  0  0
  7  8  1  0  0  0  0
  7 52  1  0  0  0  0
  8  9  2  0  0  0  0
  8 33  1  0  0  0  0
  9 10  1  0  0  0  0
  9 53  1  0  0  0  0
 10 11  1  0  0  0  0
 11 20  1  0  0  0  0
 11 12  2  0  0  0  0
 12 13  1  0  0  0  0
 13 18  2  0  0  0  0
 13 14  1  0  0  0  0
 14 15  2  0  0  0  0
 14 54  1  0  0  0  0
 15 24  1  0  0  0  0
 15 16  1  0  0  0  0
 16 17  2  0  0  0  0
 16 22  1  0  0  0  0
 17 18  1  0  0  0  0
 17 55  1  0  0  0  0
 18 19  1  0  0  0  0
 19 20  1  0  0  0  0
 19 21  2  0  0  0  0
 20 76  1  0  0  0  0
 22 23  1  0  0  0  0
 22 25  1  0  0  0  0
 23 24  2  0  0  0  0
 23 56  1  0  0  0  0
 25 26  1  0  0  0  0
 25 57  1  0  0  0  0
 25 58  1  0  0  0  0
 26 31  2  0  0  0  0
 26 27  1  0  0  0  0
 27 28  2  0  0  0  0
 27 59  1  0  0  0  0
 28 29  1  0  0  0  0
 28 60  1  0  0  0  0
 29 30  2  0  0  0  0
 29 32  1  0  0  0  0
 30 31  1  0  0  0  0
 30 61  1  0  0  0  0
 31 62  1  0  0  0  0
 33 34  2  0  0  0  0
 33 35  1  0  0  0  0
 35 40  1  0  0  0  0
 35 36  1  0  0  0  0
 36 37  1  0  0  0  0
 36 63  1  0  0  0  0
 36 64  1  0  0  0  0
 37 38  1  0  0  0  0
 37 65  1  0  0  0  0
 37 66  1  0  0  0  0
 38 39  1  0  0  0  0
 38 40  1  0  0  0  0
 38 41  1  0  0  0  0
 40 67  1  0  0  0  0
 40 68  1  0  0  0  0
 41 42  1  0  0  0  0
 41 43  1  0  0  0  0
 41 75  1  0  0  0  0
 42 69  1  0  0  0  0
 42 70  1  0  0  0  0
 42 71  1  0  0  0  0
 43 72  1  0  0  0  0
 43 73  1  0  0  0  0
 43 74  1  0  0  0  0
M  CHG  1  41   1
M  END
$$$$
CHEMBL146501
  -OEChem-07121202283D

 76 81  0     1  0  0  0  0  0999 V2000
    0.0612    1.5217    0.0599 C   0  0  0  0  0  0  0  0  0  0  0  0
    0.0234   -0.0073    0.0166 C   0  0  0  0  0  0  0  0  0  0  0  0
    0.7535   -0.5003   -1.2343 C   0  0  0  0  0  0  0  0  0  0  0  0
    0.7182   -1.9283   -1.2747 O   0  0  0  0  0  0  0  0  0  0  0  0
    1.3247   -2.5291   -2.3269 C   0  0  0  0  0  0  0  0  0  0  0  0
    1.9481   -1.7599   -3.3013 C   0  0  0  0  0  0  0  0  0  0  0  0
    2.5657   -2.3651   -4.3724 C   0  0  0  0  0  0  0  0  0  0  0  0
    2.5697   -3.7599   -4.4882 C   0  0  0  0  0  0  0  0  0  0  0  0
    1.9477   -4.5414   -3.5173 C   0  0  0  0  0  0  0  0  0  0  0  0
    1.3279   -3.9294   -2.4297 C   0  0  0  0  0  0  0  0  0  0  0  0
    0.6725   -4.7491   -1.3936 C   0  0  0  0  0  0  0  0  0  0  0  0
    0.7004   -6.1032   -1.5234 N   0  0  0  0  0  0  0  0  0  0  0  0
    0.0959   -6.9093   -0.5717 C   0  0  0  0  0  0  0  0  0  0  0  0
    0.1095   -8.2854   -0.6791 C   0  0  0  0  0  0  0  0  0  0  0  0
   -0.5114   -9.0604    0.3026 C   0  0  0  0  0  0  0  0  0  0  0  0
   -1.1475   -8.4374    1.3957 C   0  0  0  0  0  0  0  0  0  0  0  0
   -1.1614   -7.0594    1.5038 C   0  0  0  0  0  0  0  0  0  0  0  0
   -0.5421   -6.2902    0.5244 C   0  0  0  0  0  0  0  0  0  0  0  0
   -0.5281   -4.8176    0.5930 C   0  0  0  0  0  0  0  0  0  0  0  0
    0.0924   -4.1377   -0.3835 N   0  0  0  0  0  0  0  0  0  0  0  0
   -1.0641   -4.2310    1.5182 O   0  0  0  0  0  0  0  0  0  0  0  0
   -1.6552   -9.4631    2.1741 N   0  0  0  0  0  0  0  0  0  0  0  0
   -1.3299  -10.6325    1.5627 C   0  0  0  0  0  0  0  0  0  0  0  0
   -0.6622  -10.3988    0.4701 N   0  0  0  0  0  0  0  0  0  0  0  0
   -2.4033   -9.3156    3.4250 C   0  0  0  0  0  0  0  0  0  0  0  0
   -3.8618   -9.0962    3.1152 C   0  0  0  0  0  0  0  0  0  0  0  0
   -4.3448   -7.8131    2.9382 C   0  0  0  0  0  0  0  0  0  0  0  0
   -5.6820   -7.6107    2.6536 C   0  0  0  0  0  0  0  0  0  0  0  0
   -6.5379   -8.6937    2.5458 C   0  0  0  0  0  0  0  0  0  0  0  0
   -6.0529   -9.9784    2.7232 C   0  0  0  0  0  0  0  0  0  0  0  0
   -4.7143  -10.1786    3.0025 C   0  0  0  0  0  0  0  0  0  0  0  0
   -7.8453   -8.4970    2.2680 F   0  0  0  0  0  0  0  0  0  0  0  0
    3.2329   -4.4030   -5.6399 C   0  0  0  0  0  0  0  0  0  0  0  0
    3.3663   -5.6112   -5.6678 O   0  0  0  0  0  0  0  0  0  0  0  0
    3.6905   -3.6508   -6.6604 N   0  0  0  0  0  0  0  0  0  0  0  0
    3.7004   -2.1813   -6.7043 C   0  0  0  0  0  0  0  0  0  0  0  0
    4.2880   -1.7678   -8.0701 C   0  0  0  0  0  0  0  0  0  0  0  0
    4.0517   -3.0268   -8.9456 C   0  0  2  0  0  0  0  0  0  0  0  0
    3.0362   -3.0426   -9.3413 H   0  0  0  0  0  0  0  0  0  0  0  0
    4.2697   -4.1653   -7.9146 C   0  0  0  0  0  0  0  0  0  0  0  0
    5.0381   -3.1058  -10.0313 N   0  3  0  0  0  0  0  0  0  0  0  0
    4.7840   -4.3073  -10.8373 C   0  0  0  0  0  0  0  0  0  0  0  0
    4.9268   -1.9131  -10.8817 C   0  0  0  0  0  0  0  0  0  0  0  0
    1.0974    1.8589    0.0874 H   0  0  0  0  0  0  0  0  0  0  0  0
   -0.4279    1.9225   -0.8279 H   0  0  0  0  0  0  0  0  0  0  0  0
   -0.4590    1.8729    0.9511 H   0  0  0  0  0  0  0  0  0  0  0  0
    0.5125   -0.4080    0.9045 H   0  0  0  0  0  0  0  0  0  0  0  0
   -1.0128   -0.3445   -0.0108 H   0  0  0  0  0  0  0  0  0  0  0  0
    0.2644   -0.0995   -2.1221 H   0  0  0  0  0  0  0  0  0  0  0  0
    1.7897   -0.1631   -1.2068 H   0  0  0  0  0  0  0  0  0  0  0  0
    1.9481   -0.6831   -3.2183 H   0  0  0  0  0  0  0  0  0  0  0  0
    3.0486   -1.7613   -5.1264 H   0  0  0  0  0  0  0  0  0  0  0  0
    1.9495   -5.6178   -3.6050 H   0  0  0  0  0  0  0  0  0  0  0  0
    0.5972   -8.7599   -1.5177 H   0  0  0  0  0  0  0  0  0  0  0  0
   -1.6489   -6.5839    2.3420 H   0  0  0  0  0  0  0  0  0  0  0  0
   -1.5878  -11.6146    1.9308 H   0  0  0  0  0  0  0  0  0  0  0  0
   -2.2911  -10.2192    4.0242 H   0  0  0  0  0  0  0  0  0  0  0  0
   -2.0174   -8.4609    3.9806 H   0  0  0  0  0  0  0  0  0  0  0  0
   -3.6771   -6.9684    3.0227 H   0  0  0  0  0  0  0  0  0  0  0  0
   -6.0592   -6.6082    2.5157 H   0  0  0  0  0  0  0  0  0  0  0  0
   -6.7197  -10.8239    2.6396 H   0  0  0  0  0  0  0  0  0  0  0  0
   -4.3349  -11.1808    3.1366 H   0  0  0  0  0  0  0  0  0  0  0  0
    2.6836   -1.8007   -6.6076 H   0  0  0  0  0  0  0  0  0  0  0  0
    4.3229   -1.7905   -5.8994 H   0  0  0  0  0  0  0  0  0  0  0  0
    3.7526   -0.9096   -8.4764 H   0  0  0  0  0  0  0  0  0  0  0  0
    5.3530   -1.5531   -7.9827 H   0  0  0  0  0  0  0  0  0  0  0  0
    5.3334   -4.3660   -7.7869 H   0  0  0  0  0  0  0  0  0  0  0  0
    3.7477   -5.0682   -8.2312 H   0  0  0  0  0  0  0  0  0  0  0  0
    5.5159   -4.3660  -11.6429 H   0  0  0  0  0  0  0  0  0  0  0  0
    4.8666   -5.1923  -10.2063 H   0  0  0  0  0  0  0  0  0  0  0  0
    3.7809   -4.2554  -11.2608 H   0  0  0  0  0  0  0  0  0  0  0  0
    5.1154   -1.0216  -10.2837 H   0  0  0  0  0  0  0  0  0  0  0  0
    5.6587   -1.9718  -11.6873 H   0  0  0  0  0  0  0  0  0  0  0  0
    3.9238   -1.8612  -11.3052 H   0  0  0  0  0  0  0  0  0  0  0  0
    5.9666   -3.1539   -9.6393 H   0  0  0  0  0  0  0  0  0  0  0  0
    1.1450   -6.5061   -2.2855 H   0  0  0  0  0  0  0  0  0  0  0  0
  1  2  1  0  0  0  0
  1 44  1  0  0  0  0
  1 45  1  0  0  0  0
  1 46  1  0  0  0  0
  2  3  1  0  0  0  0
  2 47  1  0  0  0  0
  2 48  1  0  0  0  0
  3  4  1  0  0  0  0
  3 49  1  0  0  0  0
  3 50  1  0  0  0  0
  4  5  1  0  0  0  0
  5 10  2  0  0  0  0
  5  6  1  0  0  0  0
  6  7  2  0  0  0  0
  6 51  1  0  0  0  0
  7  8  1  0  0  0  0
  7 52  1  0  0  0  0
  8  9  2  0  0  0  0
  8 33  1  0  0  0  0
  9 10  1  0  0  0  0
  9 53  1  0  0  0  0
 10 11  1  0  0  0  0
 11 20  2  0  0  0  0
 11 12  1  0  0  0  0
 12 13  1  0  0  0  0
 12 76  1  0  0  0  0
 13 18  2  0  0  0  0
 13 14  1  0  0  0  0
 14 15  2  0  0  0  0
 14 54  1  0  0  0  0
 15 24  1  0  0  0  0
 15 16  1  0  0  0  0
 16 17  2  0  0  0  0
 16 22  1  0  0  0  0
 17 18  1  0  0  0  0
 17 55  1  0  0  0  0
 18 19  1  0  0  0  0
 19 20  1  0  0  0  0
 19 21  2  0  0  0  0
 22 23  1  0  0  0  0
 22 25  1  0  0  0  0
 23 24  2  0  0  0  0
 23 56  1  0  0  0  0
 25 26  1  0  0  0  0
 25 57  1  0  0  0  0
 25 58  1  0  0  0  0
 26 31  2  0  0  0  0
 26 27  1  0  0  0  0
 27 28  2  0  0  0  0
 27 59  1  0  0  0  0
 28 29  1  0  0  0  0
 28 60  1  0  0  0  0
 29 30  2  0  0  0  0
 29 32  1  0  0  0  0
 30 31  1  0  0  0  0
 30 61  1  0  0  0  0
 31 62  1  0  0  0  0
 33 34  2  0  0  0  0
 33 35  1  0  0  0  0
 35 40  1  0  0  0  0
 35 36  1  0  0  0  0
 36 37  1  0  0  0  0
 36 63  1  0  0  0  0
 36 64  1  0  0  0  0
 37 38  1  0  0  0  0
 37 65  1  0  0  0  0
 37 66  1  0  0  0  0
 38 39  1  0  0  0  0
 38 40  1  0  0  0  0
 38 41  1  0  0  0  0
 40 67  1  0  0  0  0
 40 68  1  0  0  0  0
 41 42  1  0  0  0  0
 41 43  1  0  0  0  0
 41 75  1  0  0  0  0
 42 69  1  0  0  0  0
 42 70  1  0  0  0  0
 42 71  1  0  0  0  0
 43 72  1  0  0  0  0
 43 73  1  0  0  0  0
 43 74  1  0  0  0  0
M  CHG  1  41   1
M  END
$$$$
CHEMBL146501
  -OEChem-07121202283D

 75 80  0     1  0  0  0  0  0999 V2000
    0.0614    1.5217    0.0600 C   0  0  0  0  0  0  0  0  0  0  0  0
    0.0238   -0.0072    0.0169 C   0  0  0  0  0  0  0  0  0  0  0  0
    0.7538   -0.5002   -1.2341 C   0  0  0  0  0  0  0  0  0  0  0  0
    0.7186   -1.9282   -1.2744 O   0  0  0  0  0  0  0  0  0  0  0  0
    1.3254   -2.5294   -2.3275 C   0  0  0  0  0  0  0  0  0  0  0  0
    1.9484   -1.7600   -3.3015 C   0  0  0  0  0  0  0  0  0  0  0  0
    2.5661   -2.3654   -4.3729 C   0  0  0  0  0  0  0  0  0  0  0  0
    2.5699   -3.7595   -4.4869 C   0  0  0  0  0  0  0  0  0  0  0  0
    1.9468   -4.5395   -3.5136 C   0  0  0  0  0  0  0  0  0  0  0  0
    1.3286   -3.9270   -2.4295 C   0  0  0  0  0  0  0  0  0  0  0  0
    0.6701   -4.7493   -1.3879 C   0  0  0  0  0  0  0  0  0  0  0  0
    0.6949   -6.0626   -1.5098 N   0  0  0  0  0  0  0  0  0  0  0  0
    0.1093   -6.8418   -0.5863 C   0  0  0  0  0  0  0  0  0  0  0  0
    0.1224   -8.2333   -0.6927 C   0  0  0  0  0  0  0  0  0  0  0  0
   -0.4958   -9.0018    0.2862 C   0  0  0  0  0  0  0  0  0  0  0  0
   -1.1341   -8.3788    1.3831 C   0  0  0  0  0  0  0  0  0  0  0  0
   -1.1522   -7.0056    1.4981 C   0  0  0  0  0  0  0  0  0  0  0  0
   -0.5344   -6.2234    0.5192 C   0  0  0  0  0  0  0  0  0  0  0  0
   -0.5271   -4.8093    0.5942 C   0  0  0  0  0  0  0  0  0  0  0  0
    0.0817   -4.1315   -0.3633 N   0  0  0  0  0  0  0  0  0  0  0  0
   -1.1245   -4.1674    1.6245 O   0  5  0  0  0  0  0  0  0  0  0  0
   -1.6405   -9.4078    2.1598 N   0  0  0  0  0  0  0  0  0  0  0  0
   -1.3135  -10.5764    1.5458 C   0  0  0  0  0  0  0  0  0  0  0  0
   -0.6465  -10.3421    0.4539 N   0  0  0  0  0  0  0  0  0  0  0  0
   -2.3894   -9.2641    3.4107 C   0  0  0  0  0  0  0  0  0  0  0  0
   -3.8481   -9.0468    3.1007 C   0  0  0  0  0  0  0  0  0  0  0  0
   -4.3334   -7.7642    2.9260 C   0  0  0  0  0  0  0  0  0  0  0  0
   -5.6708   -7.5637    2.6412 C   0  0  0  0  0  0  0  0  0  0  0  0
   -6.5247   -8.6481    2.5310 C   0  0  0  0  0  0  0  0  0  0  0  0
   -6.0375   -9.9322    2.7062 C   0  0  0  0  0  0  0  0  0  0  0  0
   -4.6986  -10.1305    2.9857 C   0  0  0  0  0  0  0  0  0  0  0  0
   -7.8324   -8.4533    2.2531 F   0  0  0  0  0  0  0  0  0  0  0  0
    3.2328   -4.4046   -5.6375 C   0  0  0  0  0  0  0  0  0  0  0  0
    3.3655   -5.6129   -5.6635 O   0  0  0  0  0  0  0  0  0  0  0  0
    3.6909   -3.6542   -6.6589 N   0  0  0  0  0  0  0  0  0  0  0  0
    3.7016   -2.1848   -6.7052 C   0  0  0  0  0  0  0  0  0  0  0  0
    4.2897   -1.7736   -8.0715 C   0  0  0  0  0  0  0  0  0  0  0  0
    4.0531   -3.0339   -8.9451 C   0  0  2  0  0  0  0  0  0  0  0  0
    3.0376   -3.0498   -9.3410 H   0  0  0  0  0  0  0  0  0  0  0  0
    4.2703   -4.1709   -7.9123 C   0  0  0  0  0  0  0  0  0  0  0  0
    5.0397   -3.1150  -10.0304 N   0  3  0  0  0  0  0  0  0  0  0  0
    4.7852   -4.3177  -10.8346 C   0  0  0  0  0  0  0  0  0  0  0  0
    4.9291   -1.9236  -10.8827 C   0  0  0  0  0  0  0  0  0  0  0  0
    1.0976    1.8590    0.0874 H   0  0  0  0  0  0  0  0  0  0  0  0
   -0.4278    1.9224   -0.8278 H   0  0  0  0  0  0  0  0  0  0  0  0
   -0.4587    1.8729    0.9512 H   0  0  0  0  0  0  0  0  0  0  0  0
    0.5130   -0.4079    0.9047 H   0  0  0  0  0  0  0  0  0  0  0  0
   -1.0124   -0.3445   -0.0105 H   0  0  0  0  0  0  0  0  0  0  0  0
    0.2646   -0.0995   -2.1219 H   0  0  0  0  0  0  0  0  0  0  0  0
    1.7899   -0.1629   -1.2068 H   0  0  0  0  0  0  0  0  0  0  0  0
    1.9481   -0.6832   -3.2184 H   0  0  0  0  0  0  0  0  0  0  0  0
    3.0488   -1.7621   -5.1276 H   0  0  0  0  0  0  0  0  0  0  0  0
    1.9479   -5.6160   -3.5995 H   0  0  0  0  0  0  0  0  0  0  0  0
    0.6095   -8.7097   -1.5306 H   0  0  0  0  0  0  0  0  0  0  0  0
   -1.6421   -6.5371    2.3388 H   0  0  0  0  0  0  0  0  0  0  0  0
   -1.5705  -11.5591    1.9128 H   0  0  0  0  0  0  0  0  0  0  0  0
   -2.2757  -10.1686    4.0082 H   0  0  0  0  0  0  0  0  0  0  0  0
   -2.0052   -8.4098    3.9680 H   0  0  0  0  0  0  0  0  0  0  0  0
   -3.6673   -6.9185    3.0124 H   0  0  0  0  0  0  0  0  0  0  0  0
   -6.0499   -6.5616    2.5051 H   0  0  0  0  0  0  0  0  0  0  0  0
   -6.7027  -10.7787    2.6207 H   0  0  0  0  0  0  0  0  0  0  0  0
   -4.3174  -11.1323    3.1180 H   0  0  0  0  0  0  0  0  0  0  0  0
    2.6850   -1.8035   -6.6093 H   0  0  0  0  0  0  0  0  0  0  0  0
    4.3241   -1.7931   -5.9007 H   0  0  0  0  0  0  0  0  0  0  0  0
    3.7548   -0.9158   -8.4792 H   0  0  0  0  0  0  0  0  0  0  0  0
    5.3548   -1.5593   -7.9841 H   0  0  0  0  0  0  0  0  0  0  0  0
    5.3338   -4.3719   -7.7840 H   0  0  0  0  0  0  0  0  0  0  0  0
    3.7479   -5.0741   -8.2276 H   0  0  0  0  0  0  0  0  0  0  0  0
    3.7822   -4.2659  -11.2584 H   0  0  0  0  0  0  0  0  0  0  0  0
    5.5172   -4.3779  -11.6400 H   0  0  0  0  0  0  0  0  0  0  0  0
    4.8672   -5.2017  -10.2022 H   0  0  0  0  0  0  0  0  0  0  0  0
    5.1180   -1.0312  -10.2860 H   0  0  0  0  0  0  0  0  0  0  0  0
    5.6612   -1.9838  -11.6880 H   0  0  0  0  0  0  0  0  0  0  0  0
    3.9262   -1.8718  -11.3065 H   0  0  0  0  0  0  0  0  0  0  0  0
    5.9680   -3.1630   -9.6382 H   0  0  0  0  0  0  0  0  0  0  0  0
  1  2  1  0  0  0  0
  1 44  1  0  0  0  0
  1 45  1  0  0  0  0
  1 46  1  0  0  0  0
  2  3  1  0  0  0  0
  2 47  1  0  0  0  0
  2 48  1  0  0  0  0
  3  4  1  0  0  0  0
  3 49  1  0  0  0  0
  3 50  1  0  0  0  0
  4  5  1  0  0  0  0
  5 10  2  0  0  0  0
  5  6  1  0  0  0  0
  6  7  2  0  0  0  0
  6 51  1  0  0  0  0
  7  8  1  0  0  0  0
  7 52  1  0  0  0  0
  8  9  2  0  0  0  0
  8 33  1  0  0  0  0
  9 10  1  0  0  0  0
  9 53  1  0  0  0  0
 10 11  1  0  0  0  0
 11 20  2  0  0  0  0
 11 12  1  0  0  0  0
 12 13  2  0  0  0  0
 13 18  1  0  0  0  0
 13 14  1  0  0  0  0
 14 15  2  0  0  0  0
 14 54  1  0  0  0  0
 15 24  1  0  0  0  0
 15 16  1  0  0  0  0
 16 17  2  0  0  0  0
 16 22  1  0  0  0  0
 17 18  1  0  0  0  0
 17 55  1  0  0  0  0
 18 19  2  0  0  0  0
 19 20  1  0  0  0  0
 19 21  1  0  0  0  0
 22 23  1  0  0  0  0
 22 25  1  0  0  0  0
 23 24  2  0  0  0  0
 23 56  1  0  0  0  0
 25 26  1  0  0  0  0
 25 57  1  0  0  0  0
 25 58  1  0  0  0  0
 26 31  2  0  0  0  0
 26 27  1  0  0  0  0
 27 28  2  0  0  0  0
 27 59  1  0  0  0  0
 28 29  1  0  0  0  0
 28 60  1  0  0  0  0
 29 30  2  0  0  0  0
 29 32  1  0  0  0  0
 30 31  1  0  0  0  0
 30 61  1  0  0  0  0
 31 62  1  0  0  0  0
 33 34  2  0  0  0  0
 33 35  1  0  0  0  0
 35 40  1  0  0  0  0
 35 36  1  0  0  0  0
 36 37  1  0  0  0  0
 36 63  1  0  0  0  0
 36 64  1  0  0  0  0
 37 38  1  0  0  0  0
 37 65  1  0  0  0  0
 37 66  1  0  0  0  0
 38 39  1  0  0  0  0
 38 40  1  0  0  0  0
 38 41  1  0  0  0  0
 40 67  1  0  0  0  0
 40 68  1  0  0  0  0
 41 42  1  0  0  0  0
 41 43  1  0  0  0  0
 41 75  1  0  0  0  0
 42 69  1  0  0  0  0
 42 70  1  0  0  0  0
 42 71  1  0  0  0  0
 43 72  1  0  0  0  0
 43 73  1  0  0  0  0
 43 74  1  0  0  0  0
M  CHG  2  21  -1  41   1
M  END
$$$$
CHEMBL544347
  -OEChem-07121202283D

 42 45  0     0  0  0  0  0  0999 V2000
   -0.0167    1.3781    0.0096 C   0  0  0  0  0  0  0  0  0  0  0  0
    1.1709    2.0855    0.0021 C   0  0  0  0  0  0  0  0  0  0  0  0
    2.3773    1.4107   -0.0130 C   0  0  0  0  0  0  0  0  0  0  0  0
    2.3960    0.0285   -0.0201 C   0  0  0  0  0  0  0  0  0  0  0  0
    1.2084   -0.6789   -0.0117 C   0  0  0  0  0  0  0  0  0  0  0  0
    0.0021   -0.0041    0.0020 C   0  0  0  0  0  0  0  0  0  0  0  0
    3.7112   -0.7071   -0.0376 C   0  0  0  0  0  0  0  0  0  0  0  0
    4.1518   -0.9524    1.3379 N   0  0  0  0  0  0  0  0  0  0  0  0
    5.3374   -1.6154    1.5741 C   0  0  0  0  0  0  0  0  0  0  0  0
    5.7780   -1.8674    2.8978 C   0  0  0  0  0  0  0  0  0  0  0  0
    5.0405   -1.4615    4.0149 C   0  0  0  0  0  0  0  0  0  0  0  0
    5.5122   -1.7310    5.2662 C   0  0  0  0  0  0  0  0  0  0  0  0
    6.7172   -2.4043    5.4465 C   0  0  0  0  0  0  0  0  0  0  0  0
    7.4599   -2.8129    4.3791 C   0  0  0  0  0  0  0  0  0  0  0  0
    7.0046   -2.5529    3.0786 C   0  0  0  0  0  0  0  0  0  0  0  0
    7.6967   -2.9343    1.9965 N   0  0  0  0  0  0  0  0  0  0  0  0
    7.2407   -2.6742    0.7856 C   0  0  0  0  0  0  0  0  0  0  0  0
    6.0909   -2.0377    0.5703 N   0  0  0  0  0  0  0  0  0  0  0  0
    8.0392   -3.1140   -0.3839 C   0  0  0  0  0  0  0  0  0  0  0  0
    9.2470   -3.7953   -0.2040 C   0  0  0  0  0  0  0  0  0  0  0  0
    9.9545   -4.1848   -1.3279 C   0  0  0  0  0  0  0  0  0  0  0  0
    9.4489   -3.8905   -2.5814 C   0  0  0  0  0  0  0  0  0  0  0  0
    8.3065   -3.2459   -2.7198 N   0  0  0  0  0  0  0  0  0  0  0  0
    7.5953   -2.8603   -1.6802 C   0  0  0  0  0  0  0  0  0  0  0  0
    4.7322   -1.3012    6.4486 N   0  3  0  0  0  0  0  0  0  0  0  0
    3.6848   -0.7155    6.3015 O   0  0  0  0  0  0  0  0  0  0  0  0
    5.1426   -1.5357    7.5614 O   0  5  0  0  0  0  0  0  0  0  0  0
   -0.9591    1.9053    0.0259 H   0  0  0  0  0  0  0  0  0  0  0  0
    1.1563    3.1654    0.0076 H   0  0  0  0  0  0  0  0  0  0  0  0
    3.3051    1.9634   -0.0196 H   0  0  0  0  0  0  0  0  0  0  0  0
    1.2231   -1.7588   -0.0176 H   0  0  0  0  0  0  0  0  0  0  0  0
   -0.9258   -0.5567    0.0082 H   0  0  0  0  0  0  0  0  0  0  0  0
    3.5884   -1.6586   -0.5549 H   0  0  0  0  0  0  0  0  0  0  0  0
    4.4573   -0.1052   -0.5563 H   0  0  0  0  0  0  0  0  0  0  0  0
    3.6095   -0.6484    2.0824 H   0  0  0  0  0  0  0  0  0  0  0  0
    4.1044   -0.9381    3.8876 H   0  0  0  0  0  0  0  0  0  0  0  0
    7.0691   -2.6057    6.4475 H   0  0  0  0  0  0  0  0  0  0  0  0
    8.3933   -3.3337    4.5340 H   0  0  0  0  0  0  0  0  0  0  0  0
    9.6185   -4.0116    0.7867 H   0  0  0  0  0  0  0  0  0  0  0  0
   10.8914   -4.7125   -1.2274 H   0  0  0  0  0  0  0  0  0  0  0  0
    9.9984   -4.1930   -3.4606 H   0  0  0  0  0  0  0  0  0  0  0  0
    6.6620   -2.3390   -1.8339 H   0  0  0  0  0  0  0  0  0  0  0  0
  1  6  2  0  0  0  0
  1  2  1  0  0  0  0
  1 28  1  0  0  0  0
  2  3  2  0  0  0  0
  2 29  1  0  0  0  0
  3  4  1  0  0  0  0
  3 30  1  0  0  0  0
  4  5  2  0  0  0  0
  4  7  1  0  0  0  0
  5  6  1  0  0  0  0
  5 31  1  0  0  0  0
  6 32  1  0  0  0  0
  7  8  1  0  0  0  0
  7 33  1  0  0  0  0
  7 34  1  0  0  0  0
  8  9  1  0  0  0  0
  8 35  1  0  0  0  0
  9 18  2  0  0  0  0
  9 10  1  0  0  0  0
 10 15  2  0  0  0  0
 10 11  1  0  0  0  0
 11 12  2  0  0  0  0
 11 36  1  0  0  0  0
 12 13  1  0  0  0  0
 12 25  1  0  0  0  0
 13 14  2  0  0  0  0
 13 37  1  0  0  0  0
 14 15  1  0  0  0  0
 14 38  1  0  0  0  0
 15 16  1  0  0  0  0
 16 17  2  0  0  0  0
 17 18  1  0  0  0  0
 17 19  1  0  0  0  0
 19 24  2  0  0  0  0
 19 20  1  0  0  0  0
 20 21  2  0  0  0  0
 20 39  1  0  0  0  0
 21 22  1  0  0  0  0
 21 40  1  0  0  0  0
 22 23  2  0  0  0  0
 22 41  1  0  0  0  0
 23 24  1  0  0  0  0
 24 42  1  0  0  0  0
 25 26  2  0  0  0  0
 25 27  1  0  0  0  0
M  CHG  2  25   1  27  -1
M  END
$$$$
CHEMBL342922
  -OEChem-07121202283D

 53 59  0     1  0  0  0  0  0999 V2000
   -0.0165    1.3628    0.0095 C   0  0  0  0  0  0  0  0  0  0  0  0
    1.1698    2.0838    0.0021 C   0  0  0  0  0  0  0  0  0  0  0  0
    2.3862    1.4376   -0.0135 C   0  0  0  0  0  0  0  0  0  0  0  0
    2.4284    0.0458   -0.0214 C   0  0  0  0  0  0  0  0  0  0  0  0
    1.2231   -0.6777   -0.0133 C   0  0  0  0  0  0  0  0  0  0  0  0
    0.0021   -0.0041    0.0020 C   0  0  0  0  0  0  0  0  0  0  0  0
    1.2934   -2.1480   -0.0219 C   0  0  0  0  0  0  0  0  0  0  0  0
    2.5744   -2.7535   -0.0380 C   0  0  0  0  0  0  0  0  0  0  0  0
    3.6874   -1.9921   -0.0449 C   0  0  0  0  0  0  0  0  0  0  0  0
    3.6240   -0.6315   -0.0374 N   0  0  0  0  0  0  0  0  0  0  0  0
    4.9010   -2.8944   -0.0614 C   0  0  2  0  0  0  0  0  0  0  0  0
    4.4244   -4.2808   -0.0638 N   0  0  0  0  0  0  0  0  0  0  0  0
    2.9595   -4.2121   -0.0492 C   0  0  0  0  0  0  0  0  0  0  0  0
    5.1813   -5.3958   -0.0778 C   0  0  0  0  0  0  0  0  0  0  0  0
    6.3957   -5.3072   -0.0901 O   0  0  0  0  0  0  0  0  0  0  0  0
    4.5442   -6.7121   -0.0782 C   0  0  0  0  0  0  0  0  0  0  0  0
    5.1981   -7.9259   -0.0861 C   0  0  0  0  0  0  0  0  0  0  0  0
    4.2131   -8.9167   -0.0833 C   0  0  0  0  0  0  0  0  0  0  0  0
    2.9956   -8.2732   -0.0739 C   0  0  0  0  0  0  0  0  0  0  0  0
    3.2142   -6.9474   -0.0650 O   0  0  0  0  0  0  0  0  0  0  0  0
    1.6744   -8.9289   -0.0680 C   0  0  0  0  0  0  0  0  0  0  0  0
    0.4545   -8.1603   -0.0636 C   0  0  0  0  0  0  0  0  0  0  0  0
   -0.6883   -8.8791   -0.0584 C   0  0  0  0  0  0  0  0  0  0  0  0
   -0.1005  -10.5593   -0.0595 S   0  0  0  0  0  0  0  0  0  0  0  0
    1.5553  -10.2885   -0.0722 C   0  0  0  0  0  0  0  0  0  0  0  0
    5.7400   -2.6447    1.1653 C   0  0  0  0  0  0  0  0  0  0  0  0
    5.3847   -3.2176    2.3723 C   0  0  0  0  0  0  0  0  0  0  0  0
    6.1514   -2.9919    3.5002 C   0  0  0  0  0  0  0  0  0  0  0  0
    7.2785   -2.1899    3.4234 C   0  0  0  0  0  0  0  0  0  0  0  0
    7.6364   -1.6128    2.2075 C   0  0  0  0  0  0  0  0  0  0  0  0
    6.8665   -1.8480    1.0799 C   0  0  0  0  0  0  0  0  0  0  0  0
    8.7708   -0.8762    2.3914 O   0  0  0  0  0  0  0  0  0  0  0  0
    8.8731   -0.6764    3.8137 C   0  0  0  0  0  0  0  0  0  0  0  0
    8.1887   -1.8150    4.3690 O   0  0  0  0  0  0  0  0  0  0  0  0
    0.2786   -2.8253   -0.0151 O   0  0  0  0  0  0  0  0  0  0  0  0
   -0.9613    1.8858    0.0259 H   0  0  0  0  0  0  0  0  0  0  0  0
    1.1386    3.1633    0.0082 H   0  0  0  0  0  0  0  0  0  0  0  0
    3.3032    2.0080   -0.0199 H   0  0  0  0  0  0  0  0  0  0  0  0
   -0.9242   -0.5595    0.0083 H   0  0  0  0  0  0  0  0  0  0  0  0
    5.4905   -2.7047   -0.9584 H   0  0  0  0  0  0  0  0  0  0  0  0
    2.5749   -4.7034    0.8446 H   0  0  0  0  0  0  0  0  0  0  0  0
    2.5575   -4.6942   -0.9403 H   0  0  0  0  0  0  0  0  0  0  0  0
    6.2669   -8.0810   -0.0934 H   0  0  0  0  0  0  0  0  0  0  0  0
    4.3756   -9.9844   -0.0878 H   0  0  0  0  0  0  0  0  0  0  0  0
    0.4550   -7.0803   -0.0641 H   0  0  0  0  0  0  0  0  0  0  0  0
   -1.7077   -8.5226   -0.0540 H   0  0  0  0  0  0  0  0  0  0  0  0
    2.3470  -11.0230   -0.0804 H   0  0  0  0  0  0  0  0  0  0  0  0
    4.5060   -3.8425    2.4343 H   0  0  0  0  0  0  0  0  0  0  0  0
    5.8715   -3.4407    4.4418 H   0  0  0  0  0  0  0  0  0  0  0  0
    7.1442   -1.4054    0.1348 H   0  0  0  0  0  0  0  0  0  0  0  0
    9.9177   -0.6681    4.1251 H   0  0  0  0  0  0  0  0  0  0  0  0
    8.3775    0.2490    4.1071 H   0  0  0  0  0  0  0  0  0  0  0  0
    4.4504   -0.1236   -0.0431 H   0  0  0  0  0  0  0  0  0  0  0  0
  1  6  2  0  0  0  0
  1  2  1  0  0  0  0
  1 36  1  0  0  0  0
  2  3  2  0  0  0  0
  2 37  1  0  0  0  0
  3  4  1  0  0  0  0
  3 38  1  0  0  0  0
  4 10  1  0  0  0  0
  4  5  2  0  0  0  0
  5  6  1  0  0  0  0
  5  7  1  0  0  0  0
  6 39  1  0  0  0  0
  7  8  1  0  0  0  0
  7 35  2  0  0  0  0
  8 13  1  0  0  0  0
  8  9  2  0  0  0  0
  9 10  1  0  0  0  0
  9 11  1  0  0  0  0
 10 53  1  0  0  0  0
 11 12  1  0  0  0  0
 11 26  1  0  0  0  0
 11 40  1  0  0  0  0
 12 13  1  0  0  0  0
 12 14  1  0  0  0  0
 13 41  1  0  0  0  0
 13 42  1  0  0  0  0
 14 15  2  0  0  0  0
 14 16  1  0  0  0  0
 16 20  1  0  0  0  0
 16 17  2  0  0  0  0
 17 18  1  0  0  0  0
 17 43  1  0  0  0  0
 18 19  2  0  0  0  0
 18 44  1  0  0  0  0
 19 20  1  0  0  0  0
 19 21  1  0  0  0  0
 21 25  2  0  0  0  0
 21 22  1  0  0  0  0
 22 23  2  0  0  0  0
 22 45  1  0  0  0  0
 23 24  1  0  0  0  0
 23 46  1  0  0  0  0
 24 25  1  0  0  0  0
 25 47  1  0  0  0  0
 26 31  2  0  0  0  0
 26 27  1  0  0  0  0
 27 28  2  0  0  0  0
 27 48  1  0  0  0  0
 28 29  1  0  0  0  0
 28 49  1  0  0  0  0
 29 34  1  0  0  0  0
 29 30  2  0  0  0  0
 30 31  1  0  0  0  0
 30 32  1  0  0  0  0
 31 50  1  0  0  0  0
 32 33  1  0  0  0  0
 33 34  1  0  0  0  0
 33 51  1  0  0  0  0
 33 52  1  0  0  0  0
M  END
$$$$
CHEMBL342922
  -OEChem-07121202283D

 53 59  0     1  0  0  0  0  0999 V2000
   -0.0165    1.3628    0.0095 C   0  0  0  0  0  0  0  0  0  0  0  0
    1.1698    2.0838    0.0021 C   0  0  0  0  0  0  0  0  0  0  0  0
    2.3862    1.4376   -0.0135 C   0  0  0  0  0  0  0  0  0  0  0  0
    2.4284    0.0458   -0.0214 C   0  0  0  0  0  0  0  0  0  0  0  0
    1.2231   -0.6777   -0.0133 C   0  0  0  0  0  0  0  0  0  0  0  0
    0.0021   -0.0041    0.0020 C   0  0  0  0  0  0  0  0  0  0  0  0
    1.2934   -2.1480   -0.0219 C   0  0  0  0  0  0  0  0  0  0  0  0
    2.5744   -2.7535   -0.0380 C   0  0  0  0  0  0  0  0  0  0  0  0
    3.6874   -1.9921   -0.0449 C   0  0  0  0  0  0  0  0  0  0  0  0
    3.6240   -0.6315   -0.0374 N   0  0  0  0  0  0  0  0  0  0  0  0
    4.9010   -2.8944   -0.0614 C   0  0  1  0  0  0  0  0  0  0  0  0
    4.4244   -4.2808   -0.0638 N   0  0  0  0  0  0  0  0  0  0  0  0
    2.9595   -4.2121   -0.0492 C   0  0  0  0  0  0  0  0  0  0  0  0
    5.1813   -5.3958   -0.0778 C   0  0  0  0  0  0  0  0  0  0  0  0
    6.3957   -5.3072   -0.0901 O   0  0  0  0  0  0  0  0  0  0  0  0
    4.5442   -6.7121   -0.0782 C   0  0  0  0  0  0  0  0  0  0  0  0
    5.1981   -7.9259   -0.0861 C   0  0  0  0  0  0  0  0  0  0  0  0
    4.2131   -8.9167   -0.0833 C   0  0  0  0  0  0  0  0  0  0  0  0
    2.9956   -8.2732   -0.0739 C   0  0  0  0  0  0  0  0  0  0  0  0
    3.2142   -6.9474   -0.0650 O   0  0  0  0  0  0  0  0  0  0  0  0
    1.6744   -8.9289   -0.0680 C   0  0  0  0  0  0  0  0  0  0  0  0
    0.4545   -8.1603   -0.0636 C   0  0  0  0  0  0  0  0  0  0  0  0
   -0.6883   -8.8791   -0.0584 C   0  0  0  0  0  0  0  0  0  0  0  0
   -0.1005  -10.5593   -0.0595 S   0  0  0  0  0  0  0  0  0  0  0  0
    1.5553  -10.2885   -0.0722 C   0  0  0  0  0  0  0  0  0  0  0  0
    5.7160   -2.6321   -1.3016 C   0  0  0  0  0  0  0  0  0  0  0  0
    5.3306   -3.1832   -2.5095 C   0  0  0  0  0  0  0  0  0  0  0  0
    6.0746   -2.9451   -3.6500 C   0  0  0  0  0  0  0  0  0  0  0  0
    7.2095   -2.1531   -3.5847 C   0  0  0  0  0  0  0  0  0  0  0  0
    7.5977   -1.5979   -2.3679 C   0  0  0  0  0  0  0  0  0  0  0  0
    6.8440   -1.8362   -1.2301 C   0  0  0  0  0  0  0  0  0  0  0  0
    8.7339   -0.8674   -2.5644 O   0  0  0  0  0  0  0  0  0  0  0  0
    9.2645   -1.3137   -3.8263 C   0  0  0  0  0  0  0  0  0  0  0  0
    8.1025   -1.7704   -4.5435 O   0  0  0  0  0  0  0  0  0  0  0  0
    0.2786   -2.8253   -0.0151 O   0  0  0  0  0  0  0  0  0  0  0  0
   -0.9613    1.8858    0.0259 H   0  0  0  0  0  0  0  0  0  0  0  0
    1.1386    3.1633    0.0082 H   0  0  0  0  0  0  0  0  0  0  0  0
    3.3032    2.0080   -0.0199 H   0  0  0  0  0  0  0  0  0  0  0  0
   -0.9242   -0.5595    0.0083 H   0  0  0  0  0  0  0  0  0  0  0  0
    5.5079   -2.7138    0.8259 H   0  0  0  0  0  0  0  0  0  0  0  0
    2.5749   -4.7034    0.8446 H   0  0  0  0  0  0  0  0  0  0  0  0
    2.5575   -4.6942   -0.9403 H   0  0  0  0  0  0  0  0  0  0  0  0
    6.2669   -8.0810   -0.0934 H   0  0  0  0  0  0  0  0  0  0  0  0
    4.3756   -9.9844   -0.0878 H   0  0  0  0  0  0  0  0  0  0  0  0
    0.4550   -7.0803   -0.0641 H   0  0  0  0  0  0  0  0  0  0  0  0
   -1.7077   -8.5226   -0.0540 H   0  0  0  0  0  0  0  0  0  0  0  0
    2.3470  -11.0230   -0.0804 H   0  0  0  0  0  0  0  0  0  0  0  0
    4.4467   -3.8015   -2.5622 H   0  0  0  0  0  0  0  0  0  0  0  0
    5.7713   -3.3769   -4.5923 H   0  0  0  0  0  0  0  0  0  0  0  0
    7.1401   -1.4033   -0.2860 H   0  0  0  0  0  0  0  0  0  0  0  0
    9.7409   -0.4881   -4.3550 H   0  0  0  0  0  0  0  0  0  0  0  0
    9.9690   -2.1321   -3.6777 H   0  0  0  0  0  0  0  0  0  0  0  0
    4.4504   -0.1236   -0.0431 H   0  0  0  0  0  0  0  0  0  0  0  0
  1  6  2  0  0  0  0
  1  2  1  0  0  0  0
  1 36  1  0  0  0  0
  2  3  2  0  0  0  0
  2 37  1  0  0  0  0
  3  4  1  0  0  0  0
  3 38  1  0  0  0  0
  4 10  1  0  0  0  0
  4  5  2  0  0  0  0
  5  6  1  0  0  0  0
  5  7  1  0  0  0  0
  6 39  1  0  0  0  0
  7  8  1  0  0  0  0
  7 35  2  0  0  0  0
  8 13  1  0  0  0  0
  8  9  2  0  0  0  0
  9 10  1  0  0  0  0
  9 11  1  0  0  0  0
 10 53  1  0  0  0  0
 11 12  1  0  0  0  0
 11 26  1  0  0  0  0
 11 40  1  0  0  0  0
 12 13  1  0  0  0  0
 12 14  1  0  0  0  0
 13 41  1  0  0  0  0
 13 42  1  0  0  0  0
 14 15  2  0  0  0  0
 14 16  1  0  0  0  0
 16 20  1  0  0  0  0
 16 17  2  0  0  0  0
 17 18  1  0  0  0  0
 17 43  1  0  0  0  0
 18 19  2  0  0  0  0
 18 44  1  0  0  0  0
 19 20  1  0  0  0  0
 19 21  1  0  0  0  0
 21 25  2  0  0  0  0
 21 22  1  0  0  0  0
 22 23  2  0  0  0  0
 22 45  1  0  0  0  0
 23 24  1  0  0  0  0
 23 46  1  0  0  0  0
 24 25  1  0  0  0  0
 25 47  1  0  0  0  0
 26 31  2  0  0  0  0
 26 27  1  0  0  0  0
 27 28  2  0  0  0  0
 27 48  1  0  0  0  0
 28 29  1  0  0  0  0
 28 49  1  0  0  0  0
 29 34  1  0  0  0  0
 29 30  2  0  0  0  0
 30 31  1  0  0  0  0
 30 32  1  0  0  0  0
 31 50  1  0  0  0  0
 32 33  1  0  0  0  0
 33 34  1  0  0  0  0
 33 51  1  0  0  0  0
 33 52  1  0  0  0  0
M  END
$$$$
CHEMBL183096
  -OEChem-07121202283D

 70 74  0     0  0  0  0  0  0999 V2000
   -0.0187    1.5258    0.0104 C   0  0  0  0  0  0  0  0  0  0  0  0
    0.0021   -0.0041    0.0020 C   0  0  0  0  0  0  0  0  0  0  0  0
    0.7074   -0.4901   -1.2379 C   0  0  0  0  0  0  0  0  0  0  0  0
    0.1002   -0.7607   -2.4783 C   0  0  0  0  0  0  0  0  0  0  0  0
    1.1133   -1.1879   -3.3536 C   0  0  0  0  0  0  0  0  0  0  0  0
    0.7979   -1.5121   -4.6136 N   0  0  0  0  0  0  0  0  0  0  0  0
   -0.4345   -1.4428   -5.0578 C   0  0  0  0  0  0  0  0  0  0  0  0
   -1.4803   -1.0378   -4.2763 N   0  0  0  0  0  0  0  0  0  0  0  0
   -1.2695   -0.6882   -2.9859 C   0  0  0  0  0  0  0  0  0  0  0  0
   -2.1881   -0.3253   -2.2726 O   0  0  0  0  0  0  0  0  0  0  0  0
   -0.7029   -1.8170   -6.4595 C   0  0  0  0  0  0  0  0  0  0  0  0
   -2.0021   -1.7498   -6.9680 C   0  0  0  0  0  0  0  0  0  0  0  0
   -2.2462   -2.1009   -8.2783 C   0  0  0  0  0  0  0  0  0  0  0  0
   -1.2084   -2.5204   -9.0941 C   0  0  0  0  0  0  0  0  0  0  0  0
    0.0808   -2.5918   -8.6036 C   0  0  0  0  0  0  0  0  0  0  0  0
    0.3452   -2.2365   -7.2898 C   0  0  0  0  0  0  0  0  0  0  0  0
    1.6124   -2.3004   -6.8084 O   0  0  0  0  0  0  0  0  0  0  0  0
    2.6289   -2.7368   -7.7130 C   0  0  0  0  0  0  0  0  0  0  0  0
    3.9806   -2.7443   -6.9962 C   0  0  0  0  0  0  0  0  0  0  0  0
   -3.8857   -2.0162   -8.9183 S   0  0  0  0  0  0  0  0  0  0  0  0
   -3.9405   -2.9177  -10.0153 O   0  0  0  0  0  0  0  0  0  0  0  0
   -4.7622   -2.1175   -7.8044 O   0  0  0  0  0  0  0  0  0  0  0  0
   -4.0891   -0.4965   -9.5440 N   0  0  0  0  0  0  0  0  0  0  0  0
   -4.5926    0.6032   -8.7071 C   0  0  0  0  0  0  0  0  0  0  0  0
   -3.6417    1.7967   -8.8478 C   0  0  0  0  0  0  0  0  0  0  0  0
   -3.4784    2.1234  -10.2707 N   0  0  0  0  0  0  0  0  0  0  0  0
   -2.8527    1.0148  -11.0037 C   0  0  0  0  0  0  0  0  0  0  0  0
   -3.7655   -0.2093  -10.9497 C   0  0  0  0  0  0  0  0  0  0  0  0
   -2.7130    3.3656  -10.4411 C   0  0  0  0  0  0  0  0  0  0  0  0
    2.2730   -1.1661   -2.6441 N   0  0  0  0  0  0  0  0  0  0  0  0
    1.9858   -0.7262   -1.3459 N   0  0  0  0  0  0  0  0  0  0  0  0
    3.5968   -1.5346   -3.1520 C   0  0  0  0  0  0  0  0  0  0  0  0
    4.1992   -2.6620   -2.2884 C   0  0  0  0  0  0  0  0  0  0  0  0
    5.7090   -2.3227   -2.2201 C   0  0  0  0  0  0  0  0  0  0  0  0
    5.7076   -0.7774   -2.1152 C   0  0  0  0  0  0  0  0  0  0  0  0
    4.5559   -0.3363   -3.0419 C   0  0  0  0  0  0  0  0  0  0  0  0
    1.0039    1.9031    0.0027 H   0  0  0  0  0  0  0  0  0  0  0  0
   -0.5459    1.8868   -0.8726 H   0  0  0  0  0  0  0  0  0  0  0  0
   -0.5289    1.8773    0.9072 H   0  0  0  0  0  0  0  0  0  0  0  0
    0.5293   -0.3651    0.8851 H   0  0  0  0  0  0  0  0  0  0  0  0
   -1.0205   -0.3814    0.0098 H   0  0  0  0  0  0  0  0  0  0  0  0
   -2.8143   -1.4236   -6.3353 H   0  0  0  0  0  0  0  0  0  0  0  0
   -1.4085   -2.7937  -10.1197 H   0  0  0  0  0  0  0  0  0  0  0  0
    0.8847   -2.9202   -9.2457 H   0  0  0  0  0  0  0  0  0  0  0  0
    2.3971   -3.7431   -8.0619 H   0  0  0  0  0  0  0  0  0  0  0  0
    2.6731   -2.0581   -8.5647 H   0  0  0  0  0  0  0  0  0  0  0  0
    4.7559   -3.0773   -7.6862 H   0  0  0  0  0  0  0  0  0  0  0  0
    4.2124   -1.7381   -6.6472 H   0  0  0  0  0  0  0  0  0  0  0  0
    3.9364   -3.4231   -6.1444 H   0  0  0  0  0  0  0  0  0  0  0  0
   -5.5905    0.8890   -9.0395 H   0  0  0  0  0  0  0  0  0  0  0  0
   -4.6279    0.2841   -7.6655 H   0  0  0  0  0  0  0  0  0  0  0  0
   -4.0571    2.6566   -8.3225 H   0  0  0  0  0  0  0  0  0  0  0  0
   -2.6723    1.5418   -8.4196 H   0  0  0  0  0  0  0  0  0  0  0  0
   -2.6959    1.3077  -12.0418 H   0  0  0  0  0  0  0  0  0  0  0  0
   -1.8943    0.7708  -10.5454 H   0  0  0  0  0  0  0  0  0  0  0  0
   -3.2542   -1.0654  -11.3900 H   0  0  0  0  0  0  0  0  0  0  0  0
   -4.6824   -0.0031  -11.5018 H   0  0  0  0  0  0  0  0  0  0  0  0
   -1.7259    3.2484   -9.9939 H   0  0  0  0  0  0  0  0  0  0  0  0
   -2.6069    3.5841  -11.5037 H   0  0  0  0  0  0  0  0  0  0  0  0
   -3.2383    4.1860   -9.9521 H   0  0  0  0  0  0  0  0  0  0  0  0
    3.5213   -1.8582   -4.1901 H   0  0  0  0  0  0  0  0  0  0  0  0
    3.7609   -2.6538   -1.2905 H   0  0  0  0  0  0  0  0  0  0  0  0
    4.0470   -3.6304   -2.7650 H   0  0  0  0  0  0  0  0  0  0  0  0
    6.1657   -2.7694   -1.3370 H   0  0  0  0  0  0  0  0  0  0  0  0
    6.2194   -2.6479   -3.1267 H   0  0  0  0  0  0  0  0  0  0  0  0
    5.5129   -0.4648   -1.0893 H   0  0  0  0  0  0  0  0  0  0  0  0
    6.6562   -0.3704   -2.4655 H   0  0  0  0  0  0  0  0  0  0  0  0
    4.9465   -0.0790   -4.0265 H   0  0  0  0  0  0  0  0  0  0  0  0
    4.0364    0.5193   -2.6105 H   0  0  0  0  0  0  0  0  0  0  0  0
   -2.3758   -1.0012   -4.6474 H   0  0  0  0  0  0  0  0  0  0  0  0
  1  2  1  0  0  0  0
  1 37  1  0  0  0  0
  1 38  1  0  0  0  0
  1 39  1  0  0  0  0
  2  3  1  0  0  0  0
  2 40  1  0  0  0  0
  2 41  1  0  0  0  0
  3 31  2  0  0  0  0
  3  4  1  0  0  0  0
  4  9  1  0  0  0  0
  4  5  2  0  0  0  0
  5  6  1  0  0  0  0
  5 30  1  0  0  0  0
  6  7  2  0  0  0  0
  7  8  1  0  0  0  0
  7 11  1  0  0  0  0
  8  9  1  0  0  0  0
  8 70  1  0  0  0  0
  9 10  2  0  0  0  0
 11 16  2  0  0  0  0
 11 12  1  0  0  0  0
 12 13  2  0  0  0  0
 12 42  1  0  0  0  0
 13 14  1  0  0  0  0
 13 20  1  0  0  0  0
 14 15  2  0  0  0  0
 14 43  1  0  0  0  0
 15 16  1  0  0  0  0
 15 44  1  0  0  0  0
 16 17  1  0  0  0  0
 17 18  1  0  0  0  0
 18 19  1  0  0  0  0
 18 45  1  0  0  0  0
 18 46  1  0  0  0  0
 19 47  1  0  0  0  0
 19 48  1  0  0  0  0
 19 49  1  0  0  0  0
 20 21  2  0  0  0  0
 20 22  2  0  0  0  0
 20 23  1  0  0  0  0
 23 28  1  0  0  0  0
 23 24  1  0  0  0  0
 24 25  1  0  0  0  0
 24 50  1  0  0  0  0
 24 51  1  0  0  0  0
 25 26  1  0  0  0  0
 25 52  1  0  0  0  0
 25 53  1  0  0  0  0
 26 27  1  0  0  0  0
 26 29  1  0  0  0  0
 27 28  1  0  0  0  0
 27 54  1  0  0  0  0
 27 55  1  0  0  0  0
 28 56  1  0  0  0  0
 28 57  1  0  0  0  0
 29 58  1  0  0  0  0
 29 59  1  0  0  0  0
 29 60  1  0  0  0  0
 30 31  1  0  0  0  0
 30 32  1  0  0  0  0
 32 36  1  0  0  0  0
 32 33  1  0  0  0  0
 32 61  1  0  0  0  0
 33 34  1  0  0  0  0
 33 62  1  0  0  0  0
 33 63  1  0  0  0  0
 34 35  1  0  0  0  0
 34 64  1  0  0  0  0
 34 65  1  0  0  0  0
 35 36  1  0  0  0  0
 35 66  1  0  0  0  0
 35 67  1  0  0  0  0
 36 68  1  0  0  0  0
 36 69  1  0  0  0  0
M  END
$$$$
CHEMBL183096
  -OEChem-07121202283D

 71 75  0     0  0  0  0  0  0999 V2000
   -0.0187    1.5258    0.0104 C   0  0  0  0  0  0  0  0  0  0  0  0
    0.0021   -0.0041    0.0020 C   0  0  0  0  0  0  0  0  0  0  0  0
    0.7309   -0.5033    1.2229 C   0  0  0  0  0  0  0  0  0  0  0  0
    2.1129   -0.7543    1.3119 C   0  0  0  0  0  0  0  0  0  0  0  0
    2.3714   -1.2036    2.6181 C   0  0  0  0  0  0  0  0  0  0  0  0
    3.6252   -1.5155    2.9685 N   0  0  0  0  0  0  0  0  0  0  0  0
    4.6247   -1.4137    2.1249 C   0  0  0  0  0  0  0  0  0  0  0  0
    4.4642   -0.9853    0.8368 N   0  0  0  0  0  0  0  0  0  0  0  0
    3.2359   -0.6456    0.3812 C   0  0  0  0  0  0  0  0  0  0  0  0
    3.0715   -0.2623   -0.7635 O   0  0  0  0  0  0  0  0  0  0  0  0
    5.9785   -1.7762    2.5859 C   0  0  0  0  0  0  0  0  0  0  0  0
    7.0672   -1.6746    1.7165 C   0  0  0  0  0  0  0  0  0  0  0  0
    8.3294   -2.0149    2.1533 C   0  0  0  0  0  0  0  0  0  0  0  0
    8.5238   -2.4575    3.4513 C   0  0  0  0  0  0  0  0  0  0  0  0
    7.4559   -2.5629    4.3208 C   0  0  0  0  0  0  0  0  0  0  0  0
    6.1805   -2.2189    3.9001 C   0  0  0  0  0  0  0  0  0  0  0  0
    5.1312   -2.3163    4.7553 O   0  0  0  0  0  0  0  0  0  0  0  0
    5.4135   -2.7749    6.0789 C   0  0  0  0  0  0  0  0  0  0  0  0
    4.1173   -2.8189    6.8907 C   0  0  0  0  0  0  0  0  0  0  0  0
    9.7016   -1.8868    1.0555 S   0  0  0  0  0  0  0  0  0  0  0  0
   10.6931   -2.7828    1.5384 O   0  0  0  0  0  0  0  0  0  0  0  0
    9.1765   -1.9700   -0.2623 O   0  0  0  0  0  0  0  0  0  0  0  0
   10.3215   -0.3603    1.2225 N   0  0  0  0  0  0  0  0  0  0  0  0
    9.8320    0.7500    0.3908 C   0  0  0  0  0  0  0  0  0  0  0  0
    9.4788    1.9252    1.3084 C   0  0  0  0  0  0  0  0  0  0  0  0
   10.6397    2.2593    2.1431 N   0  3  0  0  0  0  0  0  0  0  0  0
   10.9507    1.1382    3.0390 C   0  0  0  0  0  0  0  0  0  0  0  0
   11.3729   -0.0748    2.2110 C   0  0  0  0  0  0  0  0  0  0  0  0
   10.3378    3.4538    2.9431 C   0  0  0  0  0  0  0  0  0  0  0  0
    1.1769   -1.2135    3.2679 N   0  0  0  0  0  0  0  0  0  0  0  0
    0.1893   -0.7710    2.3790 N   0  0  0  0  0  0  0  0  0  0  0  0
    0.9611   -1.6133    4.6607 C   0  0  0  0  0  0  0  0  0  0  0  0
   -0.0703   -2.7585    4.7280 C   0  0  0  0  0  0  0  0  0  0  0  0
   -0.8892   -2.4575    6.0078 C   0  0  0  0  0  0  0  0  0  0  0  0
   -1.0034   -0.9130    5.9851 C   0  0  0  0  0  0  0  0  0  0  0  0
    0.3678   -0.4399    5.4600 C   0  0  0  0  0  0  0  0  0  0  0  0
    1.0039    1.9031    0.0027 H   0  0  0  0  0  0  0  0  0  0  0  0
   -0.5459    1.8868   -0.8726 H   0  0  0  0  0  0  0  0  0  0  0  0
   -0.5289    1.8773    0.9072 H   0  0  0  0  0  0  0  0  0  0  0  0
   -1.0205   -0.3814    0.0098 H   0  0  0  0  0  0  0  0  0  0  0  0
    0.5123   -0.3556   -0.8948 H   0  0  0  0  0  0  0  0  0  0  0  0
    6.9200   -1.3303    0.7035 H   0  0  0  0  0  0  0  0  0  0  0  0
    9.5162   -2.7220    3.7854 H   0  0  0  0  0  0  0  0  0  0  0  0
    7.6154   -2.9091    5.3313 H   0  0  0  0  0  0  0  0  0  0  0  0
    5.8472   -3.7738    6.0325 H   0  0  0  0  0  0  0  0  0  0  0  0
    6.1185   -2.0945    6.5566 H   0  0  0  0  0  0  0  0  0  0  0  0
    4.3327   -3.1687    7.9003 H   0  0  0  0  0  0  0  0  0  0  0  0
    3.6836   -1.8199    6.9371 H   0  0  0  0  0  0  0  0  0  0  0  0
    3.4123   -3.4993    6.4130 H   0  0  0  0  0  0  0  0  0  0  0  0
   10.6099    1.0534   -0.3099 H   0  0  0  0  0  0  0  0  0  0  0  0
    8.9445    0.4336   -0.1572 H   0  0  0  0  0  0  0  0  0  0  0  0
    9.2055    2.7896    0.7031 H   0  0  0  0  0  0  0  0  0  0  0  0
    8.6397    1.6485    1.9467 H   0  0  0  0  0  0  0  0  0  0  0  0
   11.7621    1.4226    3.7089 H   0  0  0  0  0  0  0  0  0  0  0  0
   10.0671    0.8853    3.6249 H   0  0  0  0  0  0  0  0  0  0  0  0
   11.5036   -0.9363    2.8658 H   0  0  0  0  0  0  0  0  0  0  0  0
   12.3090    0.1439    1.6972 H   0  0  0  0  0  0  0  0  0  0  0  0
    9.4760    3.2559    3.5805 H   0  0  0  0  0  0  0  0  0  0  0  0
   11.1989    3.7029    3.5633 H   0  0  0  0  0  0  0  0  0  0  0  0
   10.1145    4.2889    2.2791 H   0  0  0  0  0  0  0  0  0  0  0  0
    1.9029   -1.9313    5.1079 H   0  0  0  0  0  0  0  0  0  0  0  0
   -0.7157   -2.7428    3.8497 H   0  0  0  0  0  0  0  0  0  0  0  0
    0.4336   -3.7211    4.8151 H   0  0  0  0  0  0  0  0  0  0  0  0
   -1.8753   -2.9186    5.9528 H   0  0  0  0  0  0  0  0  0  0  0  0
   -0.3541   -2.7922    6.8964 H   0  0  0  0  0  0  0  0  0  0  0  0
   -1.7995   -0.5992    5.3098 H   0  0  0  0  0  0  0  0  0  0  0  0
   -1.1805   -0.5287    6.9896 H   0  0  0  0  0  0  0  0  0  0  0  0
    1.0212   -0.1890    6.2955 H   0  0  0  0  0  0  0  0  0  0  0  0
    0.2405    0.4270    4.8116 H   0  0  0  0  0  0  0  0  0  0  0  0
    5.2325   -0.9249    0.2478 H   0  0  0  0  0  0  0  0  0  0  0  0
   11.4353    2.4461    1.5514 H   0  0  0  0  0  0  0  0  0  0  0  0
  1  2  1  0  0  0  0
  1 37  1  0  0  0  0
  1 38  1  0  0  0  0
  1 39  1  0  0  0  0
  2  3  1  0  0  0  0
  2 40  1  0  0  0  0
  2 41  1  0  0  0  0
  3 31  2  0  0  0  0
  3  4  1  0  0  0  0
  4  9  1  0  0  0  0
  4  5  2  0  0  0  0
  5  6  1  0  0  0  0
  5 30  1  0  0  0  0
  6  7  2  0  0  0  0
  7  8  1  0  0  0  0
  7 11  1  0  0  0  0
  8  9  1  0  0  0  0
  8 70  1  0  0  0  0
  9 10  2  0  0  0  0
 11 16  2  0  0  0  0
 11 12  1  0  0  0  0
 12 13  2  0  0  0  0
 12 42  1  0  0  0  0
 13 14  1  0  0  0  0
 13 20  1  0  0  0  0
 14 15  2  0  0  0  0
 14 43  1  0  0  0  0
 15 16  1  0  0  0  0
 15 44  1  0  0  0  0
 16 17  1  0  0  0  0
 17 18  1  0  0  0  0
 18 19  1  0  0  0  0
 18 45  1  0  0  0  0
 18 46  1  0  0  0  0
 19 47  1  0  0  0  0
 19 48  1  0  0  0  0
 19 49  1  0  0  0  0
 20 21  2  0  0  0  0
 20 22  2  0  0  0  0
 20 23  1  0  0  0  0
 23 28  1  0  0  0  0
 23 24  1  0  0  0  0
 24 25  1  0  0  0  0
 24 50  1  0  0  0  0
 24 51  1  0  0  0  0
 25 26  1  0  0  0  0
 25 52  1  0  0  0  0
 25 53  1  0  0  0  0
 26 27  1  0  0  0  0
 26 29  1  0  0  0  0
 26 71  1  0  0  0  0
 27 28  1  0  0  0  0
 27 54  1  0  0  0  0
 27 55  1  0  0  0  0
 28 56  1  0  0  0  0
 28 57  1  0  0  0  0
 29 58  1  0  0  0  0
 29 59  1  0  0  0  0
 29 60  1  0  0  0  0
 30 31  1  0  0  0  0
 30 32  1  0  0  0  0
 32 36  1  0  0  0  0
 32 33  1  0  0  0  0
 32 61  1  0  0  0  0
 33 34  1  0  0  0  0
 33 62  1  0  0  0  0
 33 63  1  0  0  0  0
 34 35  1  0  0  0  0
 34 64  1  0  0  0  0
 34 65  1  0  0  0  0
 35 36  1  0  0  0  0
 35 66  1  0  0  0  0
 35 67  1  0  0  0  0
 36 68  1  0  0  0  0
 36 69  1  0  0  0  0
M  CHG  1  26   1
M  END
$$$$
CHEMBL180994
  -OEChem-07121202283D

 46 49  0     0  0  0  0  0  0999 V2000
   -0.0187    1.5258    0.0104 C   0  0  0  0  0  0  0  0  0  0  0  0
    0.0021   -0.0041    0.0020 C   0  0  0  0  0  0  0  0  0  0  0  0
   -1.3386   -0.4987    0.0122 O   0  0  0  0  0  0  0  0  0  0  0  0
   -1.4982   -1.8469    0.0064 C   0  0  0  0  0  0  0  0  0  0  0  0
   -0.3894   -2.6789   -0.0028 C   0  0  0  0  0  0  0  0  0  0  0  0
   -0.5532   -4.0506   -0.0086 C   0  0  0  0  0  0  0  0  0  0  0  0
   -1.8226   -4.6036   -0.0052 C   0  0  0  0  0  0  0  0  0  0  0  0
   -2.9355   -3.7892    0.0040 C   0  0  0  0  0  0  0  0  0  0  0  0
   -2.7829   -2.4025    0.0157 C   0  0  0  0  0  0  0  0  0  0  0  0
   -3.9731   -1.5235    0.0318 C   0  0  0  0  0  0  0  0  0  0  0  0
   -3.8104   -0.2131    0.0318 N   0  0  0  0  0  0  0  0  0  0  0  0
   -4.8831    0.5948    0.0458 C   0  0  0  0  0  0  0  0  0  0  0  0
   -5.0592    1.9583    0.0504 C   0  0  0  0  0  0  0  0  0  0  0  0
   -6.3746    2.1992    0.0668 N   0  0  0  0  0  0  0  0  0  0  0  0
   -7.0345    1.0707    0.0728 C   0  0  0  0  0  0  0  0  0  0  0  0
   -6.1512    0.0393    0.0602 N   0  0  0  0  0  0  0  0  0  0  0  0
   -6.2783   -1.3243    0.0597 C   0  0  0  0  0  0  0  0  0  0  0  0
   -5.1984   -2.0738    0.0405 N   0  0  0  0  0  0  0  0  0  0  0  0
   -7.5015   -1.8935    0.0740 O   0  5  0  0  0  0  0  0  0  0  0  0
   -8.5353    0.9359    0.0912 C   0  0  0  0  0  0  0  0  0  0  0  0
   -3.9659    2.9955    0.0397 C   0  0  0  0  0  0  0  0  0  0  0  0
   -4.1093    3.9270    1.2610 C   0  0  0  0  0  0  0  0  0  0  0  0
   -3.7088    5.3231    0.7229 C   0  0  0  0  0  0  0  0  0  0  0  0
   -4.3130    5.3260   -0.7033 C   0  0  0  0  0  0  0  0  0  0  0  0
   -4.0954    3.8849   -1.2092 C   0  0  0  0  0  0  0  0  0  0  0  0
    1.0039    1.9031    0.0027 H   0  0  0  0  0  0  0  0  0  0  0  0
   -0.5459    1.8868   -0.8726 H   0  0  0  0  0  0  0  0  0  0  0  0
   -0.5289    1.8773    0.9072 H   0  0  0  0  0  0  0  0  0  0  0  0
    0.5123   -0.3556   -0.8948 H   0  0  0  0  0  0  0  0  0  0  0  0
    0.5293   -0.3651    0.8851 H   0  0  0  0  0  0  0  0  0  0  0  0
    0.6036   -2.2542   -0.0059 H   0  0  0  0  0  0  0  0  0  0  0  0
    0.3134   -4.6950   -0.0162 H   0  0  0  0  0  0  0  0  0  0  0  0
   -1.9417   -5.6770   -0.0101 H   0  0  0  0  0  0  0  0  0  0  0  0
   -3.9239   -4.2244    0.0058 H   0  0  0  0  0  0  0  0  0  0  0  0
   -8.9099    0.9050   -0.9320 H   0  0  0  0  0  0  0  0  0  0  0  0
   -8.8112    0.0162    0.6071 H   0  0  0  0  0  0  0  0  0  0  0  0
   -8.9704    1.7890    0.6118 H   0  0  0  0  0  0  0  0  0  0  0  0
   -2.9904    2.5094    0.0524 H   0  0  0  0  0  0  0  0  0  0  0  0
   -5.1402    3.9359    1.6150 H   0  0  0  0  0  0  0  0  0  0  0  0
   -3.4338    3.6173    2.0584 H   0  0  0  0  0  0  0  0  0  0  0  0
   -4.1503    6.1127    1.3310 H   0  0  0  0  0  0  0  0  0  0  0  0
   -2.6243    5.4253    0.6832 H   0  0  0  0  0  0  0  0  0  0  0  0
   -5.3767    5.5608   -0.6665 H   0  0  0  0  0  0  0  0  0  0  0  0
   -3.7861    6.0372   -1.3394 H   0  0  0  0  0  0  0  0  0  0  0  0
   -3.1824    3.8312   -1.8022 H   0  0  0  0  0  0  0  0  0  0  0  0
   -4.9490    3.5664   -1.8076 H   0  0  0  0  0  0  0  0  0  0  0  0
  1  2  1  0  0  0  0
  1 26  1  0  0  0  0
  1 27  1  0  0  0  0
  1 28  1  0  0  0  0
  2  3  1  0  0  0  0
  2 29  1  0  0  0  0
  2 30  1  0  0  0  0
  3  4  1  0  0  0  0
  4  9  2  0  0  0  0
  4  5  1  0  0  0  0
  5  6  2  0  0  0  0
  5 31  1  0  0  0  0
  6  7  1  0  0  0  0
  6 32  1  0  0  0  0
  7  8  2  0  0  0  0
  7 33  1  0  0  0  0
  8  9  1  0  0  0  0
  8 34  1  0  0  0  0
  9 10  1  0  0  0  0
 10 18  1  0  0  0  0
 10 11  2  0  0  0  0
 11 12  1  0  0  0  0
 12 16  1  0  0  0  0
 12 13  2  0  0  0  0
 13 14  1  0  0  0  0
 13 21  1  0  0  0  0
 14 15  2  0  0  0  0
 15 16  1  0  0  0  0
 15 20  1  0  0  0  0
 16 17  1  0  0  0  0
 17 18  2  0  0  0  0
 17 19  1  0  0  0  0
 20 35  1  0  0  0  0
 20 36  1  0  0  0  0
 20 37  1  0  0  0  0
 21 25  1  0  0  0  0
 21 22  1  0  0  0  0
 21 38  1  0  0  0  0
 22 23  1  0  0  0  0
 22 39  1  0  0  0  0
 22 40  1  0  0  0  0
 23 24  1  0  0  0  0
 23 41  1  0  0  0  0
 23 42  1  0  0  0  0
 24 25  1  0  0  0  0
 24 43  1  0  0  0  0
 24 44  1  0  0  0  0
 25 45  1  0  0  0  0
 25 46  1  0  0  0  0
M  CHG  1  19  -1
M  END
$$$$
CHEMBL180994
  -OEChem-07121202283D

 47 50  0     0  0  0  0  0  0999 V2000
   -0.0187    1.5258    0.0104 C   0  0  0  0  0  0  0  0  0  0  0  0
    0.0021   -0.0041    0.0020 C   0  0  0  0  0  0  0  0  0  0  0  0
    0.6709   -0.4649   -1.1737 O   0  0  0  0  0  0  0  0  0  0  0  0
    0.7766   -1.8076   -1.3359 C   0  0  0  0  0  0  0  0  0  0  0  0
    0.2435   -2.6679   -0.3877 C   0  0  0  0  0  0  0  0  0  0  0  0
    0.3522   -4.0343   -0.5538 C   0  0  0  0  0  0  0  0  0  0  0  0
    0.9928   -4.5569   -1.6658 C   0  0  0  0  0  0  0  0  0  0  0  0
    1.5284   -3.7177   -2.6180 C   0  0  0  0  0  0  0  0  0  0  0  0
    1.4203   -2.3322   -2.4659 C   0  0  0  0  0  0  0  0  0  0  0  0
    1.9855   -1.4285   -3.4834 C   0  0  0  0  0  0  0  0  0  0  0  0
    2.6065   -1.9488   -4.5848 N   0  0  0  0  0  0  0  0  0  0  0  0
    3.1311   -1.0774   -5.5306 C   0  0  0  0  0  0  0  0  0  0  0  0
    3.7871   -1.2425   -6.6986 C   0  0  0  0  0  0  0  0  0  0  0  0
    4.0594   -0.0265   -7.1984 N   0  0  0  0  0  0  0  0  0  0  0  0
    3.6010    0.8913   -6.3915 C   0  0  0  0  0  0  0  0  0  0  0  0
    3.0091    0.2801   -5.3289 N   0  0  0  0  0  0  0  0  0  0  0  0
    2.3872    0.7321   -4.2258 C   0  0  0  0  0  0  0  0  0  0  0  0
    1.8843   -0.1199   -3.3285 N   0  0  0  0  0  0  0  0  0  0  0  0
    2.2783    1.9313   -4.0447 O   0  0  0  0  0  0  0  0  0  0  0  0
    3.7086    2.3797   -6.6016 C   0  0  0  0  0  0  0  0  0  0  0  0
    4.1503   -2.5612   -7.3311 C   0  0  0  0  0  0  0  0  0  0  0  0
    5.6743   -2.6364   -7.5582 C   0  0  0  0  0  0  0  0  0  0  0  0
    5.8210   -3.3835   -8.9071 C   0  0  0  0  0  0  0  0  0  0  0  0
    4.6405   -2.8228   -9.7384 C   0  0  0  0  0  0  0  0  0  0  0  0
    3.4930   -2.6798   -8.7173 C   0  0  0  0  0  0  0  0  0  0  0  0
    1.0039    1.9031    0.0027 H   0  0  0  0  0  0  0  0  0  0  0  0
   -0.5459    1.8868   -0.8726 H   0  0  0  0  0  0  0  0  0  0  0  0
   -0.5289    1.8773    0.9072 H   0  0  0  0  0  0  0  0  0  0  0  0
    0.5293   -0.3651    0.8851 H   0  0  0  0  0  0  0  0  0  0  0  0
   -1.0205   -0.3814    0.0098 H   0  0  0  0  0  0  0  0  0  0  0  0
   -0.2571   -2.2685    0.4819 H   0  0  0  0  0  0  0  0  0  0  0  0
   -0.0644   -4.6999    0.1877 H   0  0  0  0  0  0  0  0  0  0  0  0
    1.0729   -5.6272   -1.7864 H   0  0  0  0  0  0  0  0  0  0  0  0
    2.0275   -4.1295   -3.4827 H   0  0  0  0  0  0  0  0  0  0  0  0
    2.8378    2.7325   -7.1542 H   0  0  0  0  0  0  0  0  0  0  0  0
    3.7528    2.8808   -5.6346 H   0  0  0  0  0  0  0  0  0  0  0  0
    4.6130    2.6023   -7.1678 H   0  0  0  0  0  0  0  0  0  0  0  0
    3.8262   -3.3831   -6.6927 H   0  0  0  0  0  0  0  0  0  0  0  0
    6.0994   -1.6352   -7.6284 H   0  0  0  0  0  0  0  0  0  0  0  0
    6.1522   -3.1994   -6.7564 H   0  0  0  0  0  0  0  0  0  0  0  0
    6.7739   -3.1445   -9.3793 H   0  0  0  0  0  0  0  0  0  0  0  0
    5.7176   -4.4593   -8.7660 H   0  0  0  0  0  0  0  0  0  0  0  0
    4.8986   -1.8517  -10.1608 H   0  0  0  0  0  0  0  0  0  0  0  0
    4.3639   -3.5218  -10.5277 H   0  0  0  0  0  0  0  0  0  0  0  0
    2.8506   -3.5596   -8.7519 H   0  0  0  0  0  0  0  0  0  0  0  0
    2.9113   -1.7835   -8.9326 H   0  0  0  0  0  0  0  0  0  0  0  0
    2.6796   -2.9088   -4.7033 H   0  0  0  0  0  0  0  0  0  0  0  0
  1  2  1  0  0  0  0
  1 26  1  0  0  0  0
  1 27  1  0  0  0  0
  1 28  1  0  0  0  0
  2  3  1  0  0  0  0
  2 29  1  0  0  0  0
  2 30  1  0  0  0  0
  3  4  1  0  0  0  0
  4  9  2  0  0  0  0
  4  5  1  0  0  0  0
  5  6  2  0  0  0  0
  5 31  1  0  0  0  0
  6  7  1  0  0  0  0
  6 32  1  0  0  0  0
  7  8  2  0  0  0  0
  7 33  1  0  0  0  0
  8  9  1  0  0  0  0
  8 34  1  0  0  0  0
  9 10  1  0  0  0  0
 10 18  2  0  0  0  0
 10 11  1  0  0  0  0
 11 12  1  0  0  0  0
 11 47  1  0  0  0  0
 12 16  1  0  0  0  0
 12 13  2  0  0  0  0
 13 14  1  0  0  0  0
 13 21  1  0  0  0  0
 14 15  2  0  0  0  0
 15 16  1  0  0  0  0
 15 20  1  0  0  0  0
 16 17  1  0  0  0  0
 17 18  1  0  0  0  0
 17 19  2  0  0  0  0
 20 35  1  0  0  0  0
 20 36  1  0  0  0  0
 20 37  1  0  0  0  0
 21 25  1  0  0  0  0
 21 22  1  0  0  0  0
 21 38  1  0  0  0  0
 22 23  1  0  0  0  0
 22 39  1  0  0  0  0
 22 40  1  0  0  0  0
 23 24  1  0  0  0  0
 23 41  1  0  0  0  0
 23 42  1  0  0  0  0
 24 25  1  0  0  0  0
 24 43  1  0  0  0  0
 24 44  1  0  0  0  0
 25 45  1  0  0  0  0
 25 46  1  0  0  0  0
M  END
$$$$
CHEMBL335148
  -OEChem-07121202283D

 48 52  0     1  0  0  0  0  0999 V2000
   -0.0187    1.5258    0.0104 C   0  0  0  0  0  0  0  0  0  0  0  0
    0.0021   -0.0041    0.0020 C   0  0  0  0  0  0  0  0  0  0  0  0
   -1.4333   -0.5336    0.0129 C   0  0  0  0  0  0  0  0  0  0  0  0
   -1.4126   -2.0635    0.0045 C   0  0  0  0  0  0  0  0  0  0  0  0
   -2.7870   -2.5706    0.0149 N   0  0  0  0  0  0  0  0  0  0  0  0
   -3.4887   -2.8337    1.1362 C   0  0  0  0  0  0  0  0  0  0  0  0
   -3.1193   -2.6850    2.2813 O   0  0  0  0  0  0  0  0  0  0  0  0
   -4.8337   -3.3529    0.6705 C   0  0  1  0  0  0  0  0  0  0  0  0
   -5.0055   -4.3782    0.9982 H   0  0  0  0  0  0  0  0  0  0  0  0
   -5.9444   -2.4124    1.1534 C   0  0  0  0  0  0  0  0  0  0  0  0
   -7.1312   -2.5248    0.2297 C   0  0  0  0  0  0  0  0  0  0  0  0
   -8.5025   -2.1369    0.5044 C   0  0  0  0  0  0  0  0  0  0  0  0
   -9.1195   -1.5804    1.6290 C   0  0  0  0  0  0  0  0  0  0  0  0
  -10.4679   -1.3365    1.5387 C   0  0  0  0  0  0  0  0  0  0  0  0
  -11.1928   -1.6239    0.3937 C   0  0  0  0  0  0  0  0  0  0  0  0
  -10.6070   -2.1741   -0.7333 C   0  0  0  0  0  0  0  0  0  0  0  0
   -9.2390   -2.4323   -0.6706 C   0  0  0  0  0  0  0  0  0  0  0  0
   -8.3634   -2.9571   -1.5768 N   0  0  0  0  0  0  0  0  0  0  0  0
   -8.5944   -3.2476   -2.4729 H   0  0  0  0  0  0  0  0  0  0  0  0
   -7.1094   -3.0108   -1.0294 C   0  0  0  0  0  0  0  0  0  0  0  0
   -5.8595   -3.5417   -1.7035 C   0  0  2  0  0  0  0  0  0  0  0  0
   -5.9396   -4.6195   -1.8451 H   0  0  0  0  0  0  0  0  0  0  0  0
   -4.7331   -3.2577   -0.8025 N   0  0  0  0  0  0  0  0  0  0  0  0
   -3.5041   -2.8248   -1.0892 C   0  0  0  0  0  0  0  0  0  0  0  0
   -3.0825   -2.6807   -2.2200 O   0  0  0  0  0  0  0  0  0  0  0  0
   -5.6583   -2.8592   -3.0319 C   0  0  0  0  0  0  0  0  0  0  0  0
   -6.0349   -3.4843   -4.2058 C   0  0  0  0  0  0  0  0  0  0  0  0
   -5.8401   -2.8429   -5.3839 C   0  0  0  0  0  0  0  0  0  0  0  0
   -5.1036   -1.3066   -4.8505 S   0  0  0  0  0  0  0  0  0  0  0  0
   -5.1104   -1.6209   -3.0931 C   0  0  0  0  0  0  0  0  0  0  0  0
    1.0039    1.9031    0.0027 H   0  0  0  0  0  0  0  0  0  0  0  0
   -0.5459    1.8868   -0.8726 H   0  0  0  0  0  0  0  0  0  0  0  0
   -0.5289    1.8773    0.9072 H   0  0  0  0  0  0  0  0  0  0  0  0
    0.5123   -0.3556   -0.8948 H   0  0  0  0  0  0  0  0  0  0  0  0
    0.5293   -0.3651    0.8851 H   0  0  0  0  0  0  0  0  0  0  0  0
   -1.9435   -0.1821    0.9097 H   0  0  0  0  0  0  0  0  0  0  0  0
   -1.9605   -0.1726   -0.8702 H   0  0  0  0  0  0  0  0  0  0  0  0
   -0.9024   -2.4150   -0.8923 H   0  0  0  0  0  0  0  0  0  0  0  0
   -0.8854   -2.4246    0.8875 H   0  0  0  0  0  0  0  0  0  0  0  0
   -6.2426   -2.6907    2.1642 H   0  0  0  0  0  0  0  0  0  0  0  0
   -5.5780   -1.3859    1.1516 H   0  0  0  0  0  0  0  0  0  0  0  0
   -8.5623   -1.3537    2.5260 H   0  0  0  0  0  0  0  0  0  0  0  0
  -10.9795   -0.9072    2.3874 H   0  0  0  0  0  0  0  0  0  0  0  0
  -12.2517   -1.4117    0.3800 H   0  0  0  0  0  0  0  0  0  0  0  0
  -11.1835   -2.3935   -1.6199 H   0  0  0  0  0  0  0  0  0  0  0  0
   -6.4775   -4.4692   -4.1847 H   0  0  0  0  0  0  0  0  0  0  0  0
   -6.0703   -3.1751   -6.3854 H   0  0  0  0  0  0  0  0  0  0  0  0
   -4.7662   -0.9890   -2.2878 H   0  0  0  0  0  0  0  0  0  0  0  0
  1  2  1  0  0  0  0
  1 31  1  0  0  0  0
  1 32  1  0  0  0  0
  1 33  1  0  0  0  0
  2  3  1  0  0  0  0
  2 34  1  0  0  0  0
  2 35  1  0  0  0  0
  3  4  1  0  0  0  0
  3 36  1  0  0  0  0
  3 37  1  0  0  0  0
  4  5  1  0  0  0  0
  4 38  1  0  0  0  0
  4 39  1  0  0  0  0
  5 24  1  0  0  0  0
  5  6  1  0  0  0  0
  6  7  2  0  0  0  0
  6  8  1  0  0  0  0
  8  9  1  0  0  0  0
  8 23  1  0  0  0  0
  8 10  1  0  0  0  0
 10 11  1  0  0  0  0
 10 40  1  0  0  0  0
 10 41  1  0  0  0  0
 11 20  2  0  0  0  0
 11 12  1  0  0  0  0
 12 17  2  0  0  0  0
 12 13  1  0  0  0  0
 13 14  2  0  0  0  0
 13 42  1  0  0  0  0
 14 15  1  0  0  0  0
 14 43  1  0  0  0  0
 15 16  2  0  0  0  0
 15 44  1  0  0  0  0
 16 17  1  0  0  0  0
 16 45  1  0  0  0  0
 17 18  1  0  0  0  0
 18 19  1  0  0  0  0
 18 20  1  0  0  0  0
 20 21  1  0  0  0  0
 21 22  1  0  0  0  0
 21 23  1  0  0  0  0
 21 26  1  0  0  0  0
 23 24  1  0  0  0  0
 24 25  2  0  0  0  0
 26 30  2  0  0  0  0
 26 27  1  0  0  0  0
 27 28  2  0  0  0  0
 27 46  1  0  0  0  0
 28 29  1  0  0  0  0
 28 47  1  0  0  0  0
 29 30  1  0  0  0  0
 30 48  1  0  0  0  0
M  END
$$$$
CHEMBL194511
  -OEChem-07121202283D

 63 68  0     1  0  0  0  0  0999 V2000
   -0.4781    0.8571    0.1457 C   0  0  0  0  0  0  0  0  0  0  0  0
   -0.4792   -0.6575   -0.0706 C   0  0  0  0  0  0  0  0  0  0  0  0
    0.2084   -0.9722   -1.3253 N   0  0  0  0  0  0  0  0  0  0  0  0
   -0.4983   -1.0250   -2.4689 C   0  0  0  0  0  0  0  0  0  0  0  0
   -1.6972   -0.8139   -2.4637 O   0  0  0  0  0  0  0  0  0  0  0  0
    0.1939   -1.3393   -3.7189 C   0  0  0  0  0  0  0  0  0  0  0  0
    1.5607   -1.5724   -3.6783 C   0  0  0  0  0  0  0  0  0  0  0  0
    1.9438   -1.8364   -4.9565 N   0  0  0  0  0  0  0  0  0  0  0  0
    0.8311   -1.7629   -5.7433 C   0  0  0  0  0  0  0  0  0  0  0  0
   -0.2023   -1.4688   -5.0090 N   0  0  0  0  0  0  0  0  0  0  0  0
    0.8034   -1.9876   -7.2332 C   0  0  0  0  0  0  0  0  0  0  0  0
    0.4071   -3.4133   -7.5189 C   0  0  0  0  0  0  0  0  0  0  0  0
    1.3673   -4.4076   -7.5347 C   0  0  0  0  0  0  0  0  0  0  0  0
    1.0038   -5.7153   -7.7967 C   0  0  0  0  0  0  0  0  0  0  0  0
   -0.3200   -6.0287   -8.0425 C   0  0  0  0  0  0  0  0  0  0  0  0
   -1.2802   -5.0345   -8.0259 C   0  0  0  0  0  0  0  0  0  0  0  0
   -0.9173   -3.7275   -7.7596 C   0  0  0  0  0  0  0  0  0  0  0  0
    3.3036   -2.1439   -5.4066 C   0  0  0  0  0  0  0  0  0  0  0  0
    3.9488   -0.8936   -5.9466 C   0  0  0  0  0  0  0  0  0  0  0  0
    3.9444   -0.6455   -7.3065 C   0  0  0  0  0  0  0  0  0  0  0  0
    4.5362    0.5014   -7.8017 C   0  0  0  0  0  0  0  0  0  0  0  0
    5.1320    1.4004   -6.9371 C   0  0  0  0  0  0  0  0  0  0  0  0
    5.1356    1.1527   -5.5771 C   0  0  0  0  0  0  0  0  0  0  0  0
    4.5401    0.0080   -5.0814 C   0  0  0  0  0  0  0  0  0  0  0  0
    2.2329   -1.5049   -2.4765 N   0  0  0  0  0  0  0  0  0  0  0  0
    1.5758   -1.2040   -1.3113 C   0  0  0  0  0  0  0  0  0  0  0  0
    2.3650   -1.1766   -0.2708 N   0  3  0  0  0  0  0  0  0  0  0  0
    3.7460   -1.4743   -0.6598 C   0  0  1  0  0  0  0  0  0  0  0  0
    4.0981   -2.3762   -0.1592 H   0  0  0  0  0  0  0  0  0  0  0  0
    3.6623   -1.7098   -2.1789 C   0  0  0  0  0  0  0  0  0  0  0  0
    4.6473   -0.3091   -0.3420 C   0  0  0  0  0  0  0  0  0  0  0  0
    4.1966    0.9843   -0.5287 C   0  0  0  0  0  0  0  0  0  0  0  0
    5.0234    2.0532   -0.2372 C   0  0  0  0  0  0  0  0  0  0  0  0
    6.3006    1.8286    0.2416 C   0  0  0  0  0  0  0  0  0  0  0  0
    6.7509    0.5351    0.4292 C   0  0  0  0  0  0  0  0  0  0  0  0
    5.9226   -0.5336    0.1417 C   0  0  0  0  0  0  0  0  0  0  0  0
    0.5499    1.2164    0.1946 H   0  0  0  0  0  0  0  0  0  0  0  0
   -0.9936    1.3428   -0.6829 H   0  0  0  0  0  0  0  0  0  0  0  0
   -0.9896    1.0913    1.0792 H   0  0  0  0  0  0  0  0  0  0  0  0
    0.0363   -1.1432    0.7580 H   0  0  0  0  0  0  0  0  0  0  0  0
   -1.5071   -1.0168   -0.1195 H   0  0  0  0  0  0  0  0  0  0  0  0
    0.0806   -1.3112   -7.6893 H   0  0  0  0  0  0  0  0  0  0  0  0
    1.7929   -1.7955   -7.6481 H   0  0  0  0  0  0  0  0  0  0  0  0
    2.4015   -4.1628   -7.3426 H   0  0  0  0  0  0  0  0  0  0  0  0
    1.7540   -6.4921   -7.8098 H   0  0  0  0  0  0  0  0  0  0  0  0
   -0.6039   -7.0503   -8.2480 H   0  0  0  0  0  0  0  0  0  0  0  0
   -2.3144   -5.2793   -8.2183 H   0  0  0  0  0  0  0  0  0  0  0  0
   -1.6681   -2.9513   -7.7429 H   0  0  0  0  0  0  0  0  0  0  0  0
    3.8878   -2.5207   -4.5671 H   0  0  0  0  0  0  0  0  0  0  0  0
    3.2645   -2.9002   -6.1906 H   0  0  0  0  0  0  0  0  0  0  0  0
    3.4788   -1.3479   -7.9820 H   0  0  0  0  0  0  0  0  0  0  0  0
    4.5333    0.6948   -8.8643 H   0  0  0  0  0  0  0  0  0  0  0  0
    5.5950    2.2961   -7.3241 H   0  0  0  0  0  0  0  0  0  0  0  0
    5.6014    1.8550   -4.9016 H   0  0  0  0  0  0  0  0  0  0  0  0
    4.5396   -0.1837   -4.0186 H   0  0  0  0  0  0  0  0  0  0  0  0
    3.9672   -2.7238   -2.4375 H   0  0  0  0  0  0  0  0  0  0  0  0
    4.2735   -0.9773   -2.7063 H   0  0  0  0  0  0  0  0  0  0  0  0
    3.1988    1.1598   -0.9028 H   0  0  0  0  0  0  0  0  0  0  0  0
    4.6716    3.0637   -0.3837 H   0  0  0  0  0  0  0  0  0  0  0  0
    6.9467    2.6636    0.4687 H   0  0  0  0  0  0  0  0  0  0  0  0
    7.7489    0.3597    0.8029 H   0  0  0  0  0  0  0  0  0  0  0  0
    6.2731   -1.5441    0.2918 H   0  0  0  0  0  0  0  0  0  0  0  0
    2.0765   -0.9850    0.6352 H   0  0  0  0  0  0  0  0  0  0  0  0
  1  2  1  0  0  0  0
  1 37  1  0  0  0  0
  1 38  1  0  0  0  0
  1 39  1  0  0  0  0
  2  3  1  0  0  0  0
  2 40  1  0  0  0  0
  2 41  1  0  0  0  0
  3 26  1  0  0  0  0
  3  4  1  0  0  0  0
  4  5  2  0  0  0  0
  4  6  1  0  0  0  0
  6 10  1  0  0  0  0
  6  7  2  0  0  0  0
  7  8  1  0  0  0  0
  7 25  1  0  0  0  0
  8  9  1  0  0  0  0
  8 18  1  0  0  0  0
  9 10  2  0  0  0  0
  9 11  1  0  0  0  0
 11 12  1  0  0  0  0
 11 42  1  0  0  0  0
 11 43  1  0  0  0  0
 12 17  2  0  0  0  0
 12 13  1  0  0  0  0
 13 14  2  0  0  0  0
 13 44  1  0  0  0  0
 14 15  1  0  0  0  0
 14 45  1  0  0  0  0
 15 16  2  0  0  0  0
 15 46  1  0  0  0  0
 16 17  1  0  0  0  0
 16 47  1  0  0  0  0
 17 48  1  0  0  0  0
 18 19  1  0  0  0  0
 18 49  1  0  0  0  0
 18 50  1  0  0  0  0
 19 24  2  0  0  0  0
 19 20  1  0  0  0  0
 20 21  2  0  0  0  0
 20 51  1  0  0  0  0
 21 22  1  0  0  0  0
 21 52  1  0  0  0  0
 22 23  2  0  0  0  0
 22 53  1  0  0  0  0
 23 24  1  0  0  0  0
 23 54  1  0  0  0  0
 24 55  1  0  0  0  0
 25 30  1  0  0  0  0
 25 26  1  0  0  0  0
 26 27  2  0  0  0  0
 27 28  1  0  0  0  0
 27 63  1  0  0  0  0
 28 29  1  0  0  0  0
 28 30  1  0  0  0  0
 28 31  1  0  0  0  0
 30 56  1  0  0  0  0
 30 57  1  0  0  0  0
 31 36  2  0  0  0  0
 31 32  1  0  0  0  0
 32 33  2  0  0  0  0
 32 58  1  0  0  0  0
 33 34  1  0  0  0  0
 33 59  1  0  0  0  0
 34 35  2  0  0  0  0
 34 60  1  0  0  0  0
 35 36  1  0  0  0  0
 35 61  1  0  0  0  0
 36 62  1  0  0  0  0
M  CHG  1  27   1
M  END
$$$$
CHEMBL283562
  -OEChem-07121202283D

 53 57  0     1  0  0  0  0  0999 V2000
   -0.0187    1.5258    0.0104 C   0  0  0  0  0  0  0  0  0  0  0  0
    0.0021   -0.0041    0.0020 C   0  0  0  0  0  0  0  0  0  0  0  0
    0.6878   -0.4765   -1.2033 N   0  0  0  0  0  0  0  0  0  0  0  0
   -0.0240   -0.6945   -2.3240 C   0  0  0  0  0  0  0  0  0  0  0  0
   -1.2259   -0.5018   -2.3388 O   0  0  0  0  0  0  0  0  0  0  0  0
    0.6663   -1.1658   -3.5247 C   0  0  0  0  0  0  0  0  0  0  0  0
    2.0367   -1.3716   -3.4627 C   0  0  0  0  0  0  0  0  0  0  0  0
    2.4169   -1.8023   -4.6957 N   0  0  0  0  0  0  0  0  0  0  0  0
    1.2991   -1.8528   -5.4770 C   0  0  0  0  0  0  0  0  0  0  0  0
    0.2653   -1.4759   -4.7821 N   0  0  0  0  0  0  0  0  0  0  0  0
    3.3187   -2.0318   -4.9697 H   0  0  0  0  0  0  0  0  0  0  0  0
    1.2668   -2.2793   -6.9220 C   0  0  0  0  0  0  0  0  0  0  0  0
    0.2709   -3.3972   -7.0937 C   0  0  0  0  0  0  0  0  0  0  0  0
    0.6750   -4.7113   -6.9495 C   0  0  0  0  0  0  0  0  0  0  0  0
   -0.2385   -5.7366   -7.1069 C   0  0  0  0  0  0  0  0  0  0  0  0
   -1.5564   -5.4480   -7.4082 C   0  0  0  0  0  0  0  0  0  0  0  0
   -1.9608   -4.1339   -7.5515 C   0  0  0  0  0  0  0  0  0  0  0  0
   -1.0481   -3.1083   -7.3898 C   0  0  0  0  0  0  0  0  0  0  0  0
    2.7142   -1.1309   -2.2864 N   0  0  0  0  0  0  0  0  0  0  0  0
    2.0586   -0.6847   -1.1678 C   0  0  0  0  0  0  0  0  0  0  0  0
    2.8527   -0.5047   -0.1465 N   0  3  0  0  0  0  0  0  0  0  0  0
    4.2360   -0.8327   -0.5015 C   0  0  1  0  0  0  0  0  0  0  0  0
    4.6044   -1.6530    0.1145 H   0  0  0  0  0  0  0  0  0  0  0  0
    4.1481   -1.2728   -1.9741 C   0  0  0  0  0  0  0  0  0  0  0  0
    5.1347    0.3962   -0.3491 C   0  0  0  0  0  0  0  0  0  0  0  0
    5.2220    0.7773    1.1063 C   0  0  0  0  0  0  0  0  0  0  0  0
    4.3057    1.6607    1.6456 C   0  0  0  0  0  0  0  0  0  0  0  0
    4.3858    2.0104    2.9806 C   0  0  0  0  0  0  0  0  0  0  0  0
    5.3819    1.4763    3.7764 C   0  0  0  0  0  0  0  0  0  0  0  0
    6.2977    0.5922    3.2373 C   0  0  0  0  0  0  0  0  0  0  0  0
    6.2150    0.2392    1.9033 C   0  0  0  0  0  0  0  0  0  0  0  0
    1.0039    1.9031    0.0027 H   0  0  0  0  0  0  0  0  0  0  0  0
   -0.5459    1.8868   -0.8726 H   0  0  0  0  0  0  0  0  0  0  0  0
   -0.5289    1.8773    0.9072 H   0  0  0  0  0  0  0  0  0  0  0  0
    0.5293   -0.3651    0.8851 H   0  0  0  0  0  0  0  0  0  0  0  0
   -1.0205   -0.3814    0.0098 H   0  0  0  0  0  0  0  0  0  0  0  0
    0.9744   -1.4334   -7.5441 H   0  0  0  0  0  0  0  0  0  0  0  0
    2.2563   -2.6252   -7.2209 H   0  0  0  0  0  0  0  0  0  0  0  0
    1.7047   -4.9368   -6.7141 H   0  0  0  0  0  0  0  0  0  0  0  0
    0.0774   -6.7633   -6.9950 H   0  0  0  0  0  0  0  0  0  0  0  0
   -2.2700   -6.2491   -7.5319 H   0  0  0  0  0  0  0  0  0  0  0  0
   -2.9904   -3.9084   -7.7872 H   0  0  0  0  0  0  0  0  0  0  0  0
   -1.3649   -2.0815   -7.4981 H   0  0  0  0  0  0  0  0  0  0  0  0
    4.4669   -2.3083   -2.0940 H   0  0  0  0  0  0  0  0  0  0  0  0
    4.7453   -0.6106   -2.6009 H   0  0  0  0  0  0  0  0  0  0  0  0
    6.1316    0.1661   -0.7249 H   0  0  0  0  0  0  0  0  0  0  0  0
    4.7147    1.2261   -0.9175 H   0  0  0  0  0  0  0  0  0  0  0  0
    3.5274    2.0780    1.0238 H   0  0  0  0  0  0  0  0  0  0  0  0
    3.6703    2.7011    3.4017 H   0  0  0  0  0  0  0  0  0  0  0  0
    5.4449    1.7500    4.8192 H   0  0  0  0  0  0  0  0  0  0  0  0
    7.0762    0.1752    3.8589 H   0  0  0  0  0  0  0  0  0  0  0  0
    6.9282   -0.4544    1.4830 H   0  0  0  0  0  0  0  0  0  0  0  0
    2.5661   -0.1958    0.7272 H   0  0  0  0  0  0  0  0  0  0  0  0
  1  2  1  0  0  0  0
  1 32  1  0  0  0  0
  1 33  1  0  0  0  0
  1 34  1  0  0  0  0
  2  3  1  0  0  0  0
  2 35  1  0  0  0  0
  2 36  1  0  0  0  0
  3 20  1  0  0  0  0
  3  4  1  0  0  0  0
  4  5  2  0  0  0  0
  4  6  1  0  0  0  0
  6 10  1  0  0  0  0
  6  7  2  0  0  0  0
  7 19  1  0  0  0  0
  7  8  1  0  0  0  0
  8  9  1  0  0  0  0
  8 11  1  0  0  0  0
  9 12  1  0  0  0  0
  9 10  2  0  0  0  0
 12 13  1  0  0  0  0
 12 37  1  0  0  0  0
 12 38  1  0  0  0  0
 13 18  2  0  0  0  0
 13 14  1  0  0  0  0
 14 15  2  0  0  0  0
 14 39  1  0  0  0  0
 15 16  1  0  0  0  0
 15 40  1  0  0  0  0
 16 17  2  0  0  0  0
 16 41  1  0  0  0  0
 17 18  1  0  0  0  0
 17 42  1  0  0  0  0
 18 43  1  0  0  0  0
 19 24  1  0  0  0  0
 19 20  1  0  0  0  0
 20 21  2  0  0  0  0
 21 22  1  0  0  0  0
 21 53  1  0  0  0  0
 22 23  1  0  0  0  0
 22 24  1  0  0  0  0
 22 25  1  0  0  0  0
 24 44  1  0  0  0  0
 24 45  1  0  0  0  0
 25 26  1  0  0  0  0
 25 46  1  0  0  0  0
 25 47  1  0  0  0  0
 26 31  2  0  0  0  0
 26 27  1  0  0  0  0
 27 28  2  0  0  0  0
 27 48  1  0  0  0  0
 28 29  1  0  0  0  0
 28 49  1  0  0  0  0
 29 30  2  0  0  0  0
 29 50  1  0  0  0  0
 30 31  1  0  0  0  0
 30 51  1  0  0  0  0
 31 52  1  0  0  0  0
M  CHG  1  21   1
M  END
$$$$
CHEMBL283562
  -OEChem-07121202283D

 53 57  0     1  0  0  0  0  0999 V2000
   -0.0187    1.5258    0.0104 C   0  0  0  0  0  0  0  0  0  0  0  0
    0.0021   -0.0041    0.0020 C   0  0  0  0  0  0  0  0  0  0  0  0
   -1.3723   -0.5112    0.0124 N   0  0  0  0  0  0  0  0  0  0  0  0
   -1.9821   -0.7407    1.1887 C   0  0  0  0  0  0  0  0  0  0  0  0
   -1.3931   -0.5270    2.2331 O   0  0  0  0  0  0  0  0  0  0  0  0
   -3.3054   -1.2290    1.2110 C   0  0  0  0  0  0  0  0  0  0  0  0
   -3.9630   -1.4669    0.0130 C   0  0  0  0  0  0  0  0  0  0  0  0
   -5.1843   -1.9187    0.3142 N   0  0  0  0  0  0  0  0  0  0  0  0
   -5.3276   -1.9766    1.6136 C   0  0  0  0  0  0  0  0  0  0  0  0
   -4.1957   -1.5613    2.2142 N   0  0  0  0  0  0  0  0  0  0  0  0
   -4.0358   -1.5063    3.1694 H   0  0  0  0  0  0  0  0  0  0  0  0
   -6.5707   -2.4380    2.3296 C   0  0  0  0  0  0  0  0  0  0  0  0
   -7.7522   -1.6319    1.8550 C   0  0  0  0  0  0  0  0  0  0  0  0
   -8.0904   -0.4563    2.4989 C   0  0  0  0  0  0  0  0  0  0  0  0
   -9.1742    0.2831    2.0636 C   0  0  0  0  0  0  0  0  0  0  0  0
   -9.9195   -0.1527    0.9841 C   0  0  0  0  0  0  0  0  0  0  0  0
   -9.5808   -1.3278    0.3396 C   0  0  0  0  0  0  0  0  0  0  0  0
   -8.4944   -2.0650    0.7722 C   0  0  0  0  0  0  0  0  0  0  0  0
   -3.3069   -1.2206   -1.1839 N   0  0  0  0  0  0  0  0  0  0  0  0
   -2.0223   -0.7402   -1.1910 C   0  0  0  0  0  0  0  0  0  0  0  0
   -1.5513   -0.5563   -2.3942 N   0  3  0  0  0  0  0  0  0  0  0  0
   -2.5522   -0.9169   -3.4026 C   0  0  1  0  0  0  0  0  0  0  0  0
   -2.1883   -1.7324   -4.0276 H   0  0  0  0  0  0  0  0  0  0  0  0
   -3.7634   -1.3846   -2.5746 C   0  0  0  0  0  0  0  0  0  0  0  0
   -2.9093    0.2975   -4.2621 C   0  0  0  0  0  0  0  0  0  0  0  0
   -1.7108    0.7039   -5.0802 C   0  0  0  0  0  0  0  0  0  0  0  0
   -0.8033    1.6142   -4.5717 C   0  0  0  0  0  0  0  0  0  0  0  0
    0.2961    1.9870   -5.3222 C   0  0  0  0  0  0  0  0  0  0  0  0
    0.4883    1.4491   -6.5810 C   0  0  0  0  0  0  0  0  0  0  0  0
   -0.4188    0.5381   -7.0892 C   0  0  0  0  0  0  0  0  0  0  0  0
   -1.5159    0.1621   -6.3369 C   0  0  0  0  0  0  0  0  0  0  0  0
    1.0039    1.9031    0.0027 H   0  0  0  0  0  0  0  0  0  0  0  0
   -0.5459    1.8868   -0.8726 H   0  0  0  0  0  0  0  0  0  0  0  0
   -0.5289    1.8773    0.9072 H   0  0  0  0  0  0  0  0  0  0  0  0
    0.5123   -0.3556   -0.8948 H   0  0  0  0  0  0  0  0  0  0  0  0
    0.5293   -0.3651    0.8851 H   0  0  0  0  0  0  0  0  0  0  0  0
   -6.7419   -3.4933    2.1171 H   0  0  0  0  0  0  0  0  0  0  0  0
   -6.4441   -2.2995    3.4033 H   0  0  0  0  0  0  0  0  0  0  0  0
   -7.5081   -0.1158    3.3424 H   0  0  0  0  0  0  0  0  0  0  0  0
   -9.4388    1.2012    2.5672 H   0  0  0  0  0  0  0  0  0  0  0  0
  -10.7667    0.4246    0.6444 H   0  0  0  0  0  0  0  0  0  0  0  0
  -10.1633   -1.6685   -0.5036 H   0  0  0  0  0  0  0  0  0  0  0  0
   -8.2275   -2.9812    0.2664 H   0  0  0  0  0  0  0  0  0  0  0  0
   -4.0028   -2.4279   -2.7801 H   0  0  0  0  0  0  0  0  0  0  0  0
   -4.6231   -0.7451   -2.7749 H   0  0  0  0  0  0  0  0  0  0  0  0
   -3.7338    0.0417   -4.9276 H   0  0  0  0  0  0  0  0  0  0  0  0
   -3.2063    1.1244   -3.6170 H   0  0  0  0  0  0  0  0  0  0  0  0
   -0.9534    2.0345   -3.5882 H   0  0  0  0  0  0  0  0  0  0  0  0
    1.0047    2.6988   -4.9251 H   0  0  0  0  0  0  0  0  0  0  0  0
    1.3468    1.7409   -7.1676 H   0  0  0  0  0  0  0  0  0  0  0  0
   -0.2688    0.1181   -8.0728 H   0  0  0  0  0  0  0  0  0  0  0  0
   -2.2225   -0.5525   -6.7324 H   0  0  0  0  0  0  0  0  0  0  0  0
   -0.6614   -0.2260   -2.5937 H   0  0  0  0  0  0  0  0  0  0  0  0
  1  2  1  0  0  0  0
  1 32  1  0  0  0  0
  1 33  1  0  0  0  0
  1 34  1  0  0  0  0
  2  3  1  0  0  0  0
  2 35  1  0  0  0  0
  2 36  1  0  0  0  0
  3 20  1  0  0  0  0
  3  4  1  0  0  0  0
  4  5  2  0  0  0  0
  4  6  1  0  0  0  0
  6 10  1  0  0  0  0
  6  7  2  0  0  0  0
  7  8  1  0  0  0  0
  7 19  1  0  0  0  0
  8  9  2  0  0  0  0
  9 10  1  0  0  0  0
  9 12  1  0  0  0  0
 10 11  1  0  0  0  0
 12 13  1  0  0  0  0
 12 37  1  0  0  0  0
 12 38  1  0  0  0  0
 13 18  2  0  0  0  0
 13 14  1  0  0  0  0
 14 15  2  0  0  0  0
 14 39  1  0  0  0  0
 15 16  1  0  0  0  0
 15 40  1  0  0  0  0
 16 17  2  0  0  0  0
 16 41  1  0  0  0  0
 17 18  1  0  0  0  0
 17 42  1  0  0  0  0
 18 43  1  0  0  0  0
 19 24  1  0  0  0  0
 19 20  1  0  0  0  0
 20 21  2  0  0  0  0
 21 22  1  0  0  0  0
 21 53  1  0  0  0  0
 22 23  1  0  0  0  0
 22 24  1  0  0  0  0
 22 25  1  0  0  0  0
 24 44  1  0  0  0  0
 24 45  1  0  0  0  0
 25 26  1  0  0  0  0
 25 46  1  0  0  0  0
 25 47  1  0  0  0  0
 26 31  2  0  0  0  0
 26 27  1  0  0  0  0
 27 28  2  0  0  0  0
 27 48  1  0  0  0  0
 28 29  1  0  0  0  0
 28 49  1  0  0  0  0
 29 30  2  0  0  0  0
 29 50  1  0  0  0  0
 30 31  1  0  0  0  0
 30 51  1  0  0  0  0
 31 52  1  0  0  0  0
M  CHG  1  21   1
M  END
$$$$
CHEMBL314667
  -OEChem-07121202283D

 50 52  0     0  0  0  0  0  0999 V2000
    0.0688    2.1479    0.3274 C   0  0  0  0  0  0  0  0  0  0  0  0
    0.0431    0.6394    0.5816 C   0  0  0  0  0  0  0  0  0  0  0  0
   -1.4057    0.1733    0.7385 C   0  0  0  0  0  0  0  0  0  0  0  0
    0.6878   -0.0880   -0.6000 C   0  0  0  0  0  0  0  0  0  0  0  0
    2.1068    0.2679   -0.6772 N   0  0  0  0  0  0  0  0  0  0  0  0
    2.5057    1.3643   -1.4262 C   0  0  0  0  0  0  0  0  0  0  0  0
    3.8595    1.6806   -1.4823 C   0  0  0  0  0  0  0  0  0  0  0  0
    4.7821    0.8796   -0.7783 C   0  0  0  0  0  0  0  0  0  0  0  0
    5.9724    1.1368   -0.8119 O   0  0  0  0  0  0  0  0  0  0  0  0
    4.3319   -0.1745   -0.0668 N   0  0  0  0  0  0  0  0  0  0  0  0
    3.0209   -0.4668   -0.0163 C   0  0  0  0  0  0  0  0  0  0  0  0
    2.6516   -1.4219    0.6396 O   0  0  0  0  0  0  0  0  0  0  0  0
    5.2859   -1.0102    0.6665 C   0  0  0  0  0  0  0  0  0  0  0  0
    3.9672    2.8001   -2.2863 N   0  0  0  0  0  0  0  0  0  0  0  0
    4.7843    3.2667   -2.5219 H   0  0  0  0  0  0  0  0  0  0  0  0
    2.7048    3.1214   -2.6842 C   0  0  0  0  0  0  0  0  0  0  0  0
    1.8517    2.2597   -2.1649 N   0  0  0  0  0  0  0  0  0  0  0  0
    2.3474    4.2559   -3.5588 C   0  0  0  0  0  0  0  0  0  0  0  0
    3.3425    5.1010   -4.0543 C   0  0  0  0  0  0  0  0  0  0  0  0
    3.0024    6.1584   -4.8708 C   0  0  0  0  0  0  0  0  0  0  0  0
    1.6773    6.3870   -5.2020 C   0  0  0  0  0  0  0  0  0  0  0  0
    0.6835    5.5586   -4.7180 C   0  0  0  0  0  0  0  0  0  0  0  0
    1.0087    4.4871   -3.9008 C   0  0  0  0  0  0  0  0  0  0  0  0
    0.0336    3.6687   -3.4295 O   0  0  0  0  0  0  0  0  0  0  0  0
   -1.3170    4.0365   -3.7167 C   0  0  0  0  0  0  0  0  0  0  0  0
   -1.7056    3.5107   -5.1000 C   0  0  0  0  0  0  0  0  0  0  0  0
   -2.2456    3.4316   -2.6619 C   0  0  0  0  0  0  0  0  0  0  0  0
    1.1010    2.4800    0.2156 H   0  0  0  0  0  0  0  0  0  0  0  0
   -0.4858    2.3723   -0.5838 H   0  0  0  0  0  0  0  0  0  0  0  0
   -0.3905    2.6661    1.1692 H   0  0  0  0  0  0  0  0  0  0  0  0
    0.5977    0.4150    1.4927 H   0  0  0  0  0  0  0  0  0  0  0  0
   -1.9603    0.3977   -0.1727 H   0  0  0  0  0  0  0  0  0  0  0  0
   -1.4240   -0.9014    0.9196 H   0  0  0  0  0  0  0  0  0  0  0  0
   -1.8650    0.6915    1.5803 H   0  0  0  0  0  0  0  0  0  0  0  0
    0.5903   -1.1647   -0.4609 H   0  0  0  0  0  0  0  0  0  0  0  0
    0.1888    0.2057   -1.5235 H   0  0  0  0  0  0  0  0  0  0  0  0
    6.2951   -0.6264    0.5166 H   0  0  0  0  0  0  0  0  0  0  0  0
    5.0439   -0.9909    1.7291 H   0  0  0  0  0  0  0  0  0  0  0  0
    5.2286   -2.0349    0.2993 H   0  0  0  0  0  0  0  0  0  0  0  0
    4.3770    4.9266   -3.7979 H   0  0  0  0  0  0  0  0  0  0  0  0
    3.7727    6.8115   -5.2536 H   0  0  0  0  0  0  0  0  0  0  0  0
    1.4194    7.2178   -5.8420 H   0  0  0  0  0  0  0  0  0  0  0  0
   -0.3479    5.7435   -4.9799 H   0  0  0  0  0  0  0  0  0  0  0  0
   -1.4089    5.1225   -3.7019 H   0  0  0  0  0  0  0  0  0  0  0  0
   -1.0440    3.9416   -5.8515 H   0  0  0  0  0  0  0  0  0  0  0  0
   -1.6137    2.4246   -5.1149 H   0  0  0  0  0  0  0  0  0  0  0  0
   -2.7358    3.7911   -5.3191 H   0  0  0  0  0  0  0  0  0  0  0  0
   -1.9688    3.8062   -1.6764 H   0  0  0  0  0  0  0  0  0  0  0  0
   -3.2759    3.7121   -2.8810 H   0  0  0  0  0  0  0  0  0  0  0  0
   -2.1537    2.3456   -2.6767 H   0  0  0  0  0  0  0  0  0  0  0  0
  1  2  1  0  0  0  0
  1 28  1  0  0  0  0
  1 29  1  0  0  0  0
  1 30  1  0  0  0  0
  2  3  1  0  0  0  0
  2  4  1  0  0  0  0
  2 31  1  0  0  0  0
  3 32  1  0  0  0  0
  3 33  1  0  0  0  0
  3 34  1  0  0  0  0
  4  5  1  0  0  0  0
  4 35  1  0  0  0  0
  4 36  1  0  0  0  0
  5 11  1  0  0  0  0
  5  6  1  0  0  0  0
  6 17  1  0  0  0  0
  6  7  2  0  0  0  0
  7  8  1  0  0  0  0
  7 14  1  0  0  0  0
  8  9  2  0  0  0  0
  8 10  1  0  0  0  0
 10 11  1  0  0  0  0
 10 13  1  0  0  0  0
 11 12  2  0  0  0  0
 13 37  1  0  0  0  0
 13 38  1  0  0  0  0
 13 39  1  0  0  0  0
 14 15  1  0  0  0  0
 14 16  1  0  0  0  0
 16 17  2  0  0  0  0
 16 18  1  0  0  0  0
 18 23  2  0  0  0  0
 18 19  1  0  0  0  0
 19 20  2  0  0  0  0
 19 40  1  0  0  0  0
 20 21  1  0  0  0  0
 20 41  1  0  0  0  0
 21 22  2  0  0  0  0
 21 42  1  0  0  0  0
 22 23  1  0  0  0  0
 22 43  1  0  0  0  0
 23 24  1  0  0  0  0
 24 25  1  0  0  0  0
 25 26  1  0  0  0  0
 25 27  1  0  0  0  0
 25 44  1  0  0  0  0
 26 45  1  0  0  0  0
 26 46  1  0  0  0  0
 26 47  1  0  0  0  0
 27 48  1  0  0  0  0
 27 49  1  0  0  0  0
 27 50  1  0  0  0  0
M  END
$$$$
CHEMBL337804
  -OEChem-07121202283D

 53 59  0     1  0  0  0  0  0999 V2000
   -0.0165    1.3628    0.0095 C   0  0  0  0  0  0  0  0  0  0  0  0
    1.1698    2.0838    0.0021 C   0  0  0  0  0  0  0  0  0  0  0  0
    2.3862    1.4376   -0.0135 C   0  0  0  0  0  0  0  0  0  0  0  0
    2.4284    0.0458   -0.0214 C   0  0  0  0  0  0  0  0  0  0  0  0
    1.2231   -0.6777   -0.0133 C   0  0  0  0  0  0  0  0  0  0  0  0
    0.0021   -0.0041    0.0020 C   0  0  0  0  0  0  0  0  0  0  0  0
    1.2934   -2.1480   -0.0219 C   0  0  0  0  0  0  0  0  0  0  0  0
    2.5744   -2.7535   -0.0380 C   0  0  0  0  0  0  0  0  0  0  0  0
    3.6874   -1.9921   -0.0449 C   0  0  0  0  0  0  0  0  0  0  0  0
    3.6240   -0.6315   -0.0374 N   0  0  0  0  0  0  0  0  0  0  0  0
    4.9010   -2.8944   -0.0614 C   0  0  2  0  0  0  0  0  0  0  0  0
    4.4244   -4.2808   -0.0638 N   0  0  0  0  0  0  0  0  0  0  0  0
    2.9595   -4.2121   -0.0492 C   0  0  0  0  0  0  0  0  0  0  0  0
    5.1813   -5.3958   -0.0778 C   0  0  0  0  0  0  0  0  0  0  0  0
    6.3956   -5.3072   -0.0901 O   0  0  0  0  0  0  0  0  0  0  0  0
    4.5440   -6.7126   -0.0782 C   0  0  0  0  0  0  0  0  0  0  0  0
    5.1988   -7.9265   -0.0861 C   0  0  0  0  0  0  0  0  0  0  0  0
    4.2158   -8.9178   -0.0834 C   0  0  0  0  0  0  0  0  0  0  0  0
    2.9950   -8.2741   -0.0739 C   0  0  0  0  0  0  0  0  0  0  0  0
    3.2142   -6.9471   -0.0650 O   0  0  0  0  0  0  0  0  0  0  0  0
    1.6805   -8.9269   -0.0680 C   0  0  0  0  0  0  0  0  0  0  0  0
    0.4711   -8.2943   -0.0641 C   0  0  0  0  0  0  0  0  0  0  0  0
   -0.5115   -9.3004   -0.0591 C   0  0  0  0  0  0  0  0  0  0  0  0
    0.1340  -10.4854   -0.0601 C   0  0  0  0  0  0  0  0  0  0  0  0
    1.4564  -10.2564   -0.0714 O   0  0  0  0  0  0  0  0  0  0  0  0
    5.7400   -2.6447    1.1653 C   0  0  0  0  0  0  0  0  0  0  0  0
    5.3847   -3.2176    2.3723 C   0  0  0  0  0  0  0  0  0  0  0  0
    6.1514   -2.9919    3.5002 C   0  0  0  0  0  0  0  0  0  0  0  0
    7.2785   -2.1899    3.4234 C   0  0  0  0  0  0  0  0  0  0  0  0
    7.6364   -1.6128    2.2075 C   0  0  0  0  0  0  0  0  0  0  0  0
    6.8665   -1.8480    1.0799 C   0  0  0  0  0  0  0  0  0  0  0  0
    8.7708   -0.8762    2.3914 O   0  0  0  0  0  0  0  0  0  0  0  0
    8.8731   -0.6764    3.8137 C   0  0  0  0  0  0  0  0  0  0  0  0
    8.1887   -1.8150    4.3690 O   0  0  0  0  0  0  0  0  0  0  0  0
    0.2786   -2.8253   -0.0151 O   0  0  0  0  0  0  0  0  0  0  0  0
   -0.9613    1.8858    0.0259 H   0  0  0  0  0  0  0  0  0  0  0  0
    1.1386    3.1633    0.0082 H   0  0  0  0  0  0  0  0  0  0  0  0
    3.3032    2.0080   -0.0199 H   0  0  0  0  0  0  0  0  0  0  0  0
   -0.9242   -0.5595    0.0083 H   0  0  0  0  0  0  0  0  0  0  0  0
    5.4905   -2.7047   -0.9584 H   0  0  0  0  0  0  0  0  0  0  0  0
    2.5749   -4.7034    0.8446 H   0  0  0  0  0  0  0  0  0  0  0  0
    2.5575   -4.6942   -0.9403 H   0  0  0  0  0  0  0  0  0  0  0  0
    6.2677   -8.0806   -0.0931 H   0  0  0  0  0  0  0  0  0  0  0  0
    4.3795   -9.9853   -0.0884 H   0  0  0  0  0  0  0  0  0  0  0  0
    0.3015   -7.2277   -0.0647 H   0  0  0  0  0  0  0  0  0  0  0  0
   -1.5813   -9.1524   -0.0551 H   0  0  0  0  0  0  0  0  0  0  0  0
   -0.3361  -11.4577   -0.0571 H   0  0  0  0  0  0  0  0  0  0  0  0
    4.5060   -3.8425    2.4343 H   0  0  0  0  0  0  0  0  0  0  0  0
    5.8715   -3.4407    4.4418 H   0  0  0  0  0  0  0  0  0  0  0  0
    7.1442   -1.4054    0.1348 H   0  0  0  0  0  0  0  0  0  0  0  0
    9.9177   -0.6681    4.1251 H   0  0  0  0  0  0  0  0  0  0  0  0
    8.3775    0.2490    4.1071 H   0  0  0  0  0  0  0  0  0  0  0  0
    4.4504   -0.1236   -0.0431 H   0  0  0  0  0  0  0  0  0  0  0  0
  1  6  2  0  0  0  0
  1  2  1  0  0  0  0
  1 36  1  0  0  0  0
  2  3  2  0  0  0  0
  2 37  1  0  0  0  0
  3  4  1  0  0  0  0
  3 38  1  0  0  0  0
  4 10  1  0  0  0  0
  4  5  2  0  0  0  0
  5  6  1  0  0  0  0
  5  7  1  0  0  0  0
  6 39  1  0  0  0  0
  7  8  1  0  0  0  0
  7 35  2  0  0  0  0
  8 13  1  0  0  0  0
  8  9  2  0  0  0  0
  9 10  1  0  0  0  0
  9 11  1  0  0  0  0
 10 53  1  0  0  0  0
 11 12  1  0  0  0  0
 11 26  1  0  0  0  0
 11 40  1  0  0  0  0
 12 13  1  0  0  0  0
 12 14  1  0  0  0  0
 13 41  1  0  0  0  0
 13 42  1  0  0  0  0
 14 15  2  0  0  0  0
 14 16  1  0  0  0  0
 16 20  1  0  0  0  0
 16 17  2  0  0  0  0
 17 18  1  0  0  0  0
 17 43  1  0  0  0  0
 18 19  2  0  0  0  0
 18 44  1  0  0  0  0
 19 20  1  0  0  0  0
 19 21  1  0  0  0  0
 21 25  1  0  0  0  0
 21 22  2  0  0  0  0
 22 23  1  0  0  0  0
 22 45  1  0  0  0  0
 23 24  2  0  0  0  0
 23 46  1  0  0  0  0
 24 25  1  0  0  0  0
 24 47  1  0  0  0  0
 26 31  2  0  0  0  0
 26 27  1  0  0  0  0
 27 28  2  0  0  0  0
 27 48  1  0  0  0  0
 28 29  1  0  0  0  0
 28 49  1  0  0  0  0
 29 34  1  0  0  0  0
 29 30  2  0  0  0  0
 30 31  1  0  0  0  0
 30 32  1  0  0  0  0
 31 50  1  0  0  0  0
 32 33  1  0  0  0  0
 33 34  1  0  0  0  0
 33 51  1  0  0  0  0
 33 52  1  0  0  0  0
M  END
$$$$
CHEMBL337804
  -OEChem-07121202283D

 53 59  0     1  0  0  0  0  0999 V2000
   -0.0165    1.3628    0.0095 C   0  0  0  0  0  0  0  0  0  0  0  0
    1.1698    2.0838    0.0021 C   0  0  0  0  0  0  0  0  0  0  0  0
    2.3862    1.4376   -0.0135 C   0  0  0  0  0  0  0  0  0  0  0  0
    2.4284    0.0458   -0.0214 C   0  0  0  0  0  0  0  0  0  0  0  0
    1.2231   -0.6777   -0.0133 C   0  0  0  0  0  0  0  0  0  0  0  0
    0.0021   -0.0041    0.0020 C   0  0  0  0  0  0  0  0  0  0  0  0
    1.2934   -2.1480   -0.0219 C   0  0  0  0  0  0  0  0  0  0  0  0
    2.5744   -2.7535   -0.0380 C   0  0  0  0  0  0  0  0  0  0  0  0
    3.6874   -1.9921   -0.0449 C   0  0  0  0  0  0  0  0  0  0  0  0
    3.6240   -0.6315   -0.0374 N   0  0  0  0  0  0  0  0  0  0  0  0
    4.9010   -2.8944   -0.0614 C   0  0  1  0  0  0  0  0  0  0  0  0
    4.4244   -4.2808   -0.0638 N   0  0  0  0  0  0  0  0  0  0  0  0
    2.9595   -4.2121   -0.0492 C   0  0  0  0  0  0  0  0  0  0  0  0
    5.1813   -5.3958   -0.0778 C   0  0  0  0  0  0  0  0  0  0  0  0
    6.3956   -5.3072   -0.0901 O   0  0  0  0  0  0  0  0  0  0  0  0
    4.5440   -6.7126   -0.0782 C   0  0  0  0  0  0  0  0  0  0  0  0
    5.1988   -7.9265   -0.0861 C   0  0  0  0  0  0  0  0  0  0  0  0
    4.2158   -8.9178   -0.0834 C   0  0  0  0  0  0  0  0  0  0  0  0
    2.9950   -8.2741   -0.0739 C   0  0  0  0  0  0  0  0  0  0  0  0
    3.2142   -6.9471   -0.0650 O   0  0  0  0  0  0  0  0  0  0  0  0
    1.6805   -8.9269   -0.0680 C   0  0  0  0  0  0  0  0  0  0  0  0
    0.4711   -8.2943   -0.0641 C   0  0  0  0  0  0  0  0  0  0  0  0
   -0.5115   -9.3004   -0.0591 C   0  0  0  0  0  0  0  0  0  0  0  0
    0.1340  -10.4854   -0.0601 C   0  0  0  0  0  0  0  0  0  0  0  0
    1.4564  -10.2564   -0.0714 O   0  0  0  0  0  0  0  0  0  0  0  0
    5.7160   -2.6321   -1.3016 C   0  0  0  0  0  0  0  0  0  0  0  0
    5.3306   -3.1832   -2.5095 C   0  0  0  0  0  0  0  0  0  0  0  0
    6.0746   -2.9451   -3.6500 C   0  0  0  0  0  0  0  0  0  0  0  0
    7.2095   -2.1531   -3.5847 C   0  0  0  0  0  0  0  0  0  0  0  0
    7.5977   -1.5979   -2.3679 C   0  0  0  0  0  0  0  0  0  0  0  0
    6.8440   -1.8362   -1.2301 C   0  0  0  0  0  0  0  0  0  0  0  0
    8.7339   -0.8674   -2.5644 O   0  0  0  0  0  0  0  0  0  0  0  0
    9.2645   -1.3137   -3.8263 C   0  0  0  0  0  0  0  0  0  0  0  0
    8.1025   -1.7704   -4.5435 O   0  0  0  0  0  0  0  0  0  0  0  0
    0.2786   -2.8253   -0.0151 O   0  0  0  0  0  0  0  0  0  0  0  0
   -0.9613    1.8858    0.0259 H   0  0  0  0  0  0  0  0  0  0  0  0
    1.1386    3.1633    0.0082 H   0  0  0  0  0  0  0  0  0  0  0  0
    3.3032    2.0080   -0.0199 H   0  0  0  0  0  0  0  0  0  0  0  0
   -0.9242   -0.5595    0.0083 H   0  0  0  0  0  0  0  0  0  0  0  0
    5.5079   -2.7138    0.8259 H   0  0  0  0  0  0  0  0  0  0  0  0
    2.5749   -4.7034    0.8446 H   0  0  0  0  0  0  0  0  0  0  0  0
    2.5575   -4.6942   -0.9403 H   0  0  0  0  0  0  0  0  0  0  0  0
    6.2677   -8.0806   -0.0931 H   0  0  0  0  0  0  0  0  0  0  0  0
    4.3795   -9.9853   -0.0884 H   0  0  0  0  0  0  0  0  0  0  0  0
    0.3015   -7.2277   -0.0647 H   0  0  0  0  0  0  0  0  0  0  0  0
   -1.5813   -9.1524   -0.0551 H   0  0  0  0  0  0  0  0  0  0  0  0
   -0.3361  -11.4577   -0.0571 H   0  0  0  0  0  0  0  0  0  0  0  0
    4.4467   -3.8015   -2.5622 H   0  0  0  0  0  0  0  0  0  0  0  0
    5.7713   -3.3769   -4.5923 H   0  0  0  0  0  0  0  0  0  0  0  0
    7.1401   -1.4033   -0.2860 H   0  0  0  0  0  0  0  0  0  0  0  0
    9.7409   -0.4881   -4.3550 H   0  0  0  0  0  0  0  0  0  0  0  0
    9.9690   -2.1321   -3.6777 H   0  0  0  0  0  0  0  0  0  0  0  0
    4.4504   -0.1236   -0.0431 H   0  0  0  0  0  0  0  0  0  0  0  0
  1  6  2  0  0  0  0
  1  2  1  0  0  0  0
  1 36  1  0  0  0  0
  2  3  2  0  0  0  0
  2 37  1  0  0  0  0
  3  4  1  0  0  0  0
  3 38  1  0  0  0  0
  4 10  1  0  0  0  0
  4  5  2  0  0  0  0
  5  6  1  0  0  0  0
  5  7  1  0  0  0  0
  6 39  1  0  0  0  0
  7  8  1  0  0  0  0
  7 35  2  0  0  0  0
  8 13  1  0  0  0  0
  8  9  2  0  0  0  0
  9 10  1  0  0  0  0
  9 11  1  0  0  0  0
 10 53  1  0  0  0  0
 11 12  1  0  0  0  0
 11 26  1  0  0  0  0
 11 40  1  0  0  0  0
 12 13  1  0  0  0  0
 12 14  1  0  0  0  0
 13 41  1  0  0  0  0
 13 42  1  0  0  0  0
 14 15  2  0  0  0  0
 14 16  1  0  0  0  0
 16 20  1  0  0  0  0
 16 17  2  0  0  0  0
 17 18  1  0  0  0  0
 17 43  1  0  0  0  0
 18 19  2  0  0  0  0
 18 44  1  0  0  0  0
 19 20  1  0  0  0  0
 19 21  1  0  0  0  0
 21 25  1  0  0  0  0
 21 22  2  0  0  0  0
 22 23  1  0  0  0  0
 22 45  1  0  0  0  0
 23 24  2  0  0  0  0
 23 46  1  0  0  0  0
 24 25  1  0  0  0  0
 24 47  1  0  0  0  0
 26 31  2  0  0  0  0
 26 27  1  0  0  0  0
 27 28  2  0  0  0  0
 27 48  1  0  0  0  0
 28 29  1  0  0  0  0
 28 49  1  0  0  0  0
 29 34  1  0  0  0  0
 29 30  2  0  0  0  0
 30 31  1  0  0  0  0
 30 32  1  0  0  0  0
 31 50  1  0  0  0  0
 32 33  1  0  0  0  0
 33 34  1  0  0  0  0
 33 51  1  0  0  0  0
 33 52  1  0  0  0  0
M  END
$$$$
CHEMBL410215
  -OEChem-07121202283D

 60 64  0     0  0  0  0  0  0999 V2000
   -0.0319    1.5618   -0.0109 C   0  0  0  0  0  0  0  0  0  0  0  0
   -0.0116    0.0319   -0.0100 C   0  0  0  0  0  0  0  0  0  0  0  0
    0.6768   -0.4481   -1.2108 N   0  0  0  0  0  0  0  0  0  0  0  0
    0.0901   -0.7185   -2.4169 C   0  0  0  0  0  0  0  0  0  0  0  0
    1.1223   -1.1489   -3.2701 C   0  0  0  0  0  0  0  0  0  0  0  0
    2.3180   -1.1204   -2.5280 C   0  0  0  0  0  0  0  0  0  0  0  0
    2.0485   -0.7028   -1.3227 N   0  0  0  0  0  0  0  0  0  0  0  0
    0.7707   -1.5075   -4.6366 C   0  0  0  0  0  0  0  0  0  0  0  0
   -0.5907   -1.3992   -5.0177 C   0  0  0  0  0  0  0  0  0  0  0  0
   -1.5276   -0.9558   -4.0738 C   0  0  0  0  0  0  0  0  0  0  0  0
   -1.1669   -0.6442   -2.8546 N   0  0  0  0  0  0  0  0  0  0  0  0
   -0.9267   -1.7478   -6.3430 C   0  0  0  0  0  0  0  0  0  0  0  0
    0.0311   -2.1541   -7.1575 N   0  0  0  0  0  0  0  0  0  0  0  0
    1.2601   -2.2505   -6.8086 N   0  0  0  0  0  0  0  0  0  0  0  0
    1.6944   -1.9530   -5.5965 C   0  0  0  0  0  0  0  0  0  0  0  0
    3.0429   -2.0779   -5.2770 N   0  0  0  0  0  0  0  0  0  0  0  0
    4.0127   -2.4293   -6.3173 C   0  0  0  0  0  0  0  0  0  0  0  0
    5.3922   -2.5003   -5.7148 C   0  0  0  0  0  0  0  0  0  0  0  0
    6.1861   -1.3690   -5.6731 C   0  0  0  0  0  0  0  0  0  0  0  0
    7.4514   -1.4310   -5.1219 C   0  0  0  0  0  0  0  0  0  0  0  0
    7.9255   -2.6295   -4.6092 C   0  0  0  0  0  0  0  0  0  0  0  0
    7.1268   -3.7640   -4.6515 C   0  0  0  0  0  0  0  0  0  0  0  0
    5.8594   -3.6951   -5.1996 C   0  0  0  0  0  0  0  0  0  0  0  0
    7.7161   -5.2660   -4.0110 Cl  0  0  0  0  0  0  0  0  0  0  0  0
    9.1702   -2.6929   -4.0667 O   0  0  0  0  0  0  0  0  0  0  0  0
    9.9362   -1.4866   -4.0575 C   0  0  0  0  0  0  0  0  0  0  0  0
   -2.2407   -1.6658   -6.7832 N   0  0  0  0  0  0  0  0  0  0  0  0
   -2.7823   -0.3979   -7.2909 C   0  0  0  0  0  0  0  0  0  0  0  0
   -3.3792   -0.6382   -8.6811 C   0  0  0  0  0  0  0  0  0  0  0  0
   -4.4032   -1.7728   -8.6031 C   0  0  0  0  0  0  0  0  0  0  0  0
   -3.7092   -3.0581   -8.1467 C   0  0  0  0  0  0  0  0  0  0  0  0
   -3.1143   -2.8468   -6.7561 C   0  0  0  0  0  0  0  0  0  0  0  0
   -5.0173   -1.9891   -9.9622 C   0  0  0  0  0  0  0  0  0  0  0  0
   -5.4046   -3.0988  -10.2866 O   0  0  0  0  0  0  0  0  0  0  0  0
   -5.1269   -1.0545  -10.7375 O   0  5  0  0  0  0  0  0  0  0  0  0
    0.9909    1.9387   -0.0185 H   0  0  0  0  0  0  0  0  0  0  0  0
   -0.5568    1.9177   -0.8974 H   0  0  0  0  0  0  0  0  0  0  0  0
   -0.5441    1.9189    0.8825 H   0  0  0  0  0  0  0  0  0  0  0  0
    0.5133   -0.3240    0.8765 H   0  0  0  0  0  0  0  0  0  0  0  0
   -1.0344   -0.3450   -0.0025 H   0  0  0  0  0  0  0  0  0  0  0  0
    3.2955   -1.3942   -2.8966 H   0  0  0  0  0  0  0  0  0  0  0  0
   -2.5662   -0.8709   -4.3574 H   0  0  0  0  0  0  0  0  0  0  0  0
    3.3409   -1.9324   -4.3654 H   0  0  0  0  0  0  0  0  0  0  0  0
    3.7524   -3.3978   -6.7444 H   0  0  0  0  0  0  0  0  0  0  0  0
    3.9967   -1.6709   -7.1000 H   0  0  0  0  0  0  0  0  0  0  0  0
    5.8169   -0.4359   -6.0724 H   0  0  0  0  0  0  0  0  0  0  0  0
    8.0710   -0.5470   -5.0904 H   0  0  0  0  0  0  0  0  0  0  0  0
    5.2356   -4.5763   -5.2294 H   0  0  0  0  0  0  0  0  0  0  0  0
   10.0800   -1.1397   -5.0807 H   0  0  0  0  0  0  0  0  0  0  0  0
    9.4064   -0.7242   -3.4864 H   0  0  0  0  0  0  0  0  0  0  0  0
   10.9064   -1.6758   -3.5982 H   0  0  0  0  0  0  0  0  0  0  0  0
   -3.5592   -0.0366   -6.6171 H   0  0  0  0  0  0  0  0  0  0  0  0
   -1.9828    0.3398   -7.3590 H   0  0  0  0  0  0  0  0  0  0  0  0
   -3.8695    0.2712   -9.0287 H   0  0  0  0  0  0  0  0  0  0  0  0
   -2.5850   -0.9120   -9.3757 H   0  0  0  0  0  0  0  0  0  0  0  0
   -5.1841   -1.5087   -7.8899 H   0  0  0  0  0  0  0  0  0  0  0  0
   -4.4345   -3.8712   -8.1139 H   0  0  0  0  0  0  0  0  0  0  0  0
   -2.9119   -3.3092   -8.8463 H   0  0  0  0  0  0  0  0  0  0  0  0
   -2.5338   -3.7243   -6.4715 H   0  0  0  0  0  0  0  0  0  0  0  0
   -3.9189   -2.6897   -6.0378 H   0  0  0  0  0  0  0  0  0  0  0  0
  1  2  1  0  0  0  0
  1 36  1  0  0  0  0
  1 37  1  0  0  0  0
  1 38  1  0  0  0  0
  2  3  1  0  0  0  0
  2 39  1  0  0  0  0
  2 40  1  0  0  0  0
  3  7  1  0  0  0  0
  3  4  1  0  0  0  0
  4 11  2  0  0  0  0
  4  5  1  0  0  0  0
  5  6  1  0  0  0  0
  5  8  2  0  0  0  0
  6  7  2  0  0  0  0
  6 41  1  0  0  0  0
  8 15  1  0  0  0  0
  8  9  1  0  0  0  0
  9 10  2  0  0  0  0
  9 12  1  0  0  0  0
 10 11  1  0  0  0  0
 10 42  1  0  0  0  0
 12 13  2  0  0  0  0
 12 27  1  0  0  0  0
 13 14  1  0  0  0  0
 14 15  2  0  0  0  0
 15 16  1  0  0  0  0
 16 17  1  0  0  0  0
 16 43  1  0  0  0  0
 17 18  1  0  0  0  0
 17 44  1  0  0  0  0
 17 45  1  0  0  0  0
 18 23  2  0  0  0  0
 18 19  1  0  0  0  0
 19 20  2  0  0  0  0
 19 46  1  0  0  0  0
 20 21  1  0  0  0  0
 20 47  1  0  0  0  0
 21 22  2  0  0  0  0
 21 25  1  0  0  0  0
 22 23  1  0  0  0  0
 22 24  1  0  0  0  0
 23 48  1  0  0  0  0
 25 26  1  0  0  0  0
 26 49  1  0  0  0  0
 26 50  1  0  0  0  0
 26 51  1  0  0  0  0
 27 32  1  0  0  0  0
 27 28  1  0  0  0  0
 28 29  1  0  0  0  0
 28 52  1  0  0  0  0
 28 53  1  0  0  0  0
 29 30  1  0  0  0  0
 29 54  1  0  0  0  0
 29 55  1  0  0  0  0
 30 31  1  0  0  0  0
 30 33  1  0  0  0  0
 30 56  1  0  0  0  0
 31 32  1  0  0  0  0
 31 57  1  0  0  0  0
 31 58  1  0  0  0  0
 32 59  1  0  0  0  0
 32 60  1  0  0  0  0
 33 34  2  0  0  0  0
 33 35  1  0  0  0  0
M  CHG  1  35  -1
M  END
$$$$
CHEMBL410215
  -OEChem-07121202283D

 61 65  0     0  0  0  0  0  0999 V2000
   -0.0310    1.5614    0.0333 C   0  0  0  0  0  0  0  0  0  0  0  0
   -0.0020    0.0318    0.0206 C   0  0  0  0  0  0  0  0  0  0  0  0
   -1.3736   -0.4827    0.0261 N   0  0  0  0  0  0  0  0  0  0  0  0
   -2.1181   -0.7681    1.1381 C   0  0  0  0  0  0  0  0  0  0  0  0
   -3.3618   -1.2314    0.6720 C   0  0  0  0  0  0  0  0  0  0  0  0
   -3.3173   -1.2067   -0.7346 C   0  0  0  0  0  0  0  0  0  0  0  0
   -2.1495   -0.7610   -1.1051 N   0  0  0  0  0  0  0  0  0  0  0  0
   -4.3603   -1.6118    1.6609 C   0  0  0  0  0  0  0  0  0  0  0  0
   -4.0129   -1.4899    3.0301 C   0  0  0  0  0  0  0  0  0  0  0  0
   -2.7386   -1.0133    3.3682 C   0  0  0  0  0  0  0  0  0  0  0  0
   -1.8709   -0.6830    2.4453 N   0  0  0  0  0  0  0  0  0  0  0  0
   -4.9838   -1.8597    3.9847 C   0  0  0  0  0  0  0  0  0  0  0  0
   -6.1574   -2.2970    3.5637 N   0  3  0  0  0  0  0  0  0  0  0  0
   -6.4669   -2.4054    2.3252 N   0  0  0  0  0  0  0  0  0  0  0  0
   -5.6418   -2.0906    1.3422 C   0  0  0  0  0  0  0  0  0  0  0  0
   -6.0357   -2.2300    0.0149 N   0  0  0  0  0  0  0  0  0  0  0  0
   -7.4123   -2.6171   -0.3038 C   0  0  0  0  0  0  0  0  0  0  0  0
   -7.5780   -2.6975   -1.7995 C   0  0  0  0  0  0  0  0  0  0  0  0
   -7.9669   -1.5780   -2.5119 C   0  0  0  0  0  0  0  0  0  0  0  0
   -8.1202   -1.6486   -3.8831 C   0  0  0  0  0  0  0  0  0  0  0  0
   -7.8831   -2.8438   -4.5459 C   0  0  0  0  0  0  0  0  0  0  0  0
   -7.4923   -3.9664   -3.8290 C   0  0  0  0  0  0  0  0  0  0  0  0
   -7.3354   -3.8888   -2.4575 C   0  0  0  0  0  0  0  0  0  0  0  0
   -7.1945   -5.4644   -4.6544 Cl  0  0  0  0  0  0  0  0  0  0  0  0
   -8.0337   -2.9158   -5.8948 O   0  0  0  0  0  0  0  0  0  0  0  0
   -8.4386   -1.7215   -6.5670 C   0  0  0  0  0  0  0  0  0  0  0  0
   -4.7106   -1.7662    5.3425 N   0  0  0  0  0  0  0  0  0  0  0  0
   -4.9114   -0.5004    6.0610 C   0  0  0  0  0  0  0  0  0  0  0  0
   -5.8110   -0.7591    7.2737 C   0  0  0  0  0  0  0  0  0  0  0  0
   -5.2033   -1.8759    8.1256 C   0  0  0  0  0  0  0  0  0  0  0  0
   -5.1226   -3.1625    7.3008 C   0  0  0  0  0  0  0  0  0  0  0  0
   -4.2210   -2.9326    6.0897 C   0  0  0  0  0  0  0  0  0  0  0  0
   -6.0679   -2.1099    9.3375 C   0  0  0  0  0  0  0  0  0  0  0  0
   -6.1274   -3.2196    9.8389 O   0  0  0  0  0  0  0  0  0  0  0  0
   -6.7079   -1.1894    9.8167 O   0  5  0  0  0  0  0  0  0  0  0  0
    0.9896    1.9442    0.0291 H   0  0  0  0  0  0  0  0  0  0  0  0
   -0.5579    1.9222   -0.8501 H   0  0  0  0  0  0  0  0  0  0  0  0
   -0.5453    1.9077    0.9298 H   0  0  0  0  0  0  0  0  0  0  0  0
    0.5123   -0.3145   -0.8759 H   0  0  0  0  0  0  0  0  0  0  0  0
    0.5250   -0.3290    0.9039 H   0  0  0  0  0  0  0  0  0  0  0  0
   -4.1180   -1.5029   -1.3960 H   0  0  0  0  0  0  0  0  0  0  0  0
   -2.4674   -0.9179    4.4092 H   0  0  0  0  0  0  0  0  0  0  0  0
   -5.3990   -2.0710   -0.6993 H   0  0  0  0  0  0  0  0  0  0  0  0
   -7.6279   -3.5897    0.1384 H   0  0  0  0  0  0  0  0  0  0  0  0
   -8.1010   -1.8743    0.0987 H   0  0  0  0  0  0  0  0  0  0  0  0
   -8.1515   -0.6474   -1.9958 H   0  0  0  0  0  0  0  0  0  0  0  0
   -8.4247   -0.7739   -4.4385 H   0  0  0  0  0  0  0  0  0  0  0  0
   -7.0275   -4.7606   -1.8994 H   0  0  0  0  0  0  0  0  0  0  0  0
   -9.4051   -1.3973   -6.1813 H   0  0  0  0  0  0  0  0  0  0  0  0
   -7.6985   -0.9397   -6.3962 H   0  0  0  0  0  0  0  0  0  0  0  0
   -8.5209   -1.9165   -7.6363 H   0  0  0  0  0  0  0  0  0  0  0  0
   -3.9489   -0.1137    6.3959 H   0  0  0  0  0  0  0  0  0  0  0  0
   -5.3883    0.2233    5.4001 H   0  0  0  0  0  0  0  0  0  0  0  0
   -5.8898    0.1506    7.8689 H   0  0  0  0  0  0  0  0  0  0  0  0
   -6.8023   -1.0591    6.9339 H   0  0  0  0  0  0  0  0  0  0  0  0
   -4.2023   -1.5855    8.4445 H   0  0  0  0  0  0  0  0  0  0  0  0
   -4.7114   -3.9634    7.9153 H   0  0  0  0  0  0  0  0  0  0  0  0
   -6.1203   -3.4399    6.9608 H   0  0  0  0  0  0  0  0  0  0  0  0
   -4.2425   -3.8132    5.4477 H   0  0  0  0  0  0  0  0  0  0  0  0
   -3.2009   -2.7487    6.4270 H   0  0  0  0  0  0  0  0  0  0  0  0
   -6.8189   -2.5494    4.2267 H   0  0  0  0  0  0  0  0  0  0  0  0
  1  2  1  0  0  0  0
  1 36  1  0  0  0  0
  1 37  1  0  0  0  0
  1 38  1  0  0  0  0
  2  3  1  0  0  0  0
  2 39  1  0  0  0  0
  2 40  1  0  0  0  0
  3  7  1  0  0  0  0
  3  4  1  0  0  0  0
  4 11  2  0  0  0  0
  4  5  1  0  0  0  0
  5  6  1  0  0  0  0
  5  8  2  0  0  0  0
  6  7  2  0  0  0  0
  6 41  1  0  0  0  0
  8 15  1  0  0  0  0
  8  9  1  0  0  0  0
  9 10  2  0  0  0  0
  9 12  1  0  0  0  0
 10 11  1  0  0  0  0
 10 42  1  0  0  0  0
 12 13  2  0  0  0  0
 12 27  1  0  0  0  0
 13 14  1  0  0  0  0
 13 61  1  0  0  0  0
 14 15  2  0  0  0  0
 15 16  1  0  0  0  0
 16 17  1  0  0  0  0
 16 43  1  0  0  0  0
 17 18  1  0  0  0  0
 17 44  1  0  0  0  0
 17 45  1  0  0  0  0
 18 23  2  0  0  0  0
 18 19  1  0  0  0  0
 19 20  2  0  0  0  0
 19 46  1  0  0  0  0
 20 21  1  0  0  0  0
 20 47  1  0  0  0  0
 21 22  2  0  0  0  0
 21 25  1  0  0  0  0
 22 23  1  0  0  0  0
 22 24  1  0  0  0  0
 23 48  1  0  0  0  0
 25 26  1  0  0  0  0
 26 49  1  0  0  0  0
 26 50  1  0  0  0  0
 26 51  1  0  0  0  0
 27 32  1  0  0  0  0
 27 28  1  0  0  0  0
 28 29  1  0  0  0  0
 28 52  1  0  0  0  0
 28 53  1  0  0  0  0
 29 30  1  0  0  0  0
 29 54  1  0  0  0  0
 29 55  1  0  0  0  0
 30 31  1  0  0  0  0
 30 33  1  0  0  0  0
 30 56  1  0  0  0  0
 31 32  1  0  0  0  0
 31 57  1  0  0  0  0
 31 58  1  0  0  0  0
 32 59  1  0  0  0  0
 32 60  1  0  0  0  0
 33 34  2  0  0  0  0
 33 35  1  0  0  0  0
M  CHG  2  13   1  35  -1
M  END
$$$$
CHEMBL23308
  -OEChem-07121202283D

 58 62  0     1  0  0  0  0  0999 V2000
   -0.0187    1.5258    0.0104 C   0  0  0  0  0  0  0  0  0  0  0  0
    0.0021   -0.0041    0.0020 C   0  0  0  0  0  0  0  0  0  0  0  0
   -1.3723   -0.5112    0.0124 N   0  0  0  0  0  0  0  0  0  0  0  0
   -1.9821   -0.7406    1.1886 C   0  0  0  0  0  0  0  0  0  0  0  0
   -1.3921   -0.5269    2.2332 O   0  0  0  0  0  0  0  0  0  0  0  0
   -3.3014   -1.2269    1.2124 C   0  0  0  0  0  0  0  0  0  0  0  0
   -3.9619   -1.4655    0.0148 C   0  0  0  0  0  0  0  0  0  0  0  0
   -5.1827   -1.9166    0.3147 N   0  0  0  0  0  0  0  0  0  0  0  0
   -5.3295   -1.9760    1.6204 C   0  0  0  0  0  0  0  0  0  0  0  0
   -4.1933   -1.5597    2.2228 N   0  0  0  0  0  0  0  0  0  0  0  0
   -3.9497   -1.4765    3.6650 C   0  0  0  0  0  0  0  0  0  0  0  0
   -4.3569   -0.1146    4.1655 C   0  0  0  0  0  0  0  0  0  0  0  0
   -3.4382    0.9189    4.1789 C   0  0  0  0  0  0  0  0  0  0  0  0
   -3.8084    2.1683    4.6375 C   0  0  0  0  0  0  0  0  0  0  0  0
   -5.1034    2.3863    5.0846 C   0  0  0  0  0  0  0  0  0  0  0  0
   -6.0240    1.3478    5.0699 C   0  0  0  0  0  0  0  0  0  0  0  0
   -5.6498    0.1008    4.6051 C   0  0  0  0  0  0  0  0  0  0  0  0
   -7.7902    1.6399    5.6790 Br  0  0  0  0  0  0  0  0  0  0  0  0
   -5.4698    3.6145    5.5367 O   0  0  0  0  0  0  0  0  0  0  0  0
   -6.4455   -2.3894    2.2614 O   0  0  0  0  0  0  0  0  0  0  0  0
   -7.5490   -2.7930    1.4481 C   0  0  0  0  0  0  0  0  0  0  0  0
   -3.3073   -1.2195   -1.1828 N   0  0  0  0  0  0  0  0  0  0  0  0
   -2.0222   -0.7402   -1.1908 C   0  0  0  0  0  0  0  0  0  0  0  0
   -1.5520   -0.5569   -2.3943 N   0  3  0  0  0  0  0  0  0  0  0  0
   -2.5536   -0.9176   -3.4020 C   0  0  1  0  0  0  0  0  0  0  0  0
   -2.1904   -1.7335   -4.0268 H   0  0  0  0  0  0  0  0  0  0  0  0
   -3.7651   -1.3831   -2.5729 C   0  0  0  0  0  0  0  0  0  0  0  0
   -2.9110    0.2965   -4.2617 C   0  0  0  0  0  0  0  0  0  0  0  0
   -1.7129    0.7021   -5.0808 C   0  0  0  0  0  0  0  0  0  0  0  0
   -0.8047    1.6124   -4.5733 C   0  0  0  0  0  0  0  0  0  0  0  0
    0.2943    1.9845   -5.3247 C   0  0  0  0  0  0  0  0  0  0  0  0
    0.4854    1.4460   -6.5834 C   0  0  0  0  0  0  0  0  0  0  0  0
   -0.4222    0.5351   -7.0906 C   0  0  0  0  0  0  0  0  0  0  0  0
   -1.5190    0.1597   -6.3374 C   0  0  0  0  0  0  0  0  0  0  0  0
    1.0039    1.9031    0.0027 H   0  0  0  0  0  0  0  0  0  0  0  0
   -0.5459    1.8868   -0.8726 H   0  0  0  0  0  0  0  0  0  0  0  0
   -0.5289    1.8773    0.9072 H   0  0  0  0  0  0  0  0  0  0  0  0
    0.5123   -0.3556   -0.8948 H   0  0  0  0  0  0  0  0  0  0  0  0
    0.5293   -0.3651    0.8851 H   0  0  0  0  0  0  0  0  0  0  0  0
   -4.5338   -2.2413    4.1769 H   0  0  0  0  0  0  0  0  0  0  0  0
   -2.8898   -1.6348    3.8641 H   0  0  0  0  0  0  0  0  0  0  0  0
   -2.4301    0.7490    3.8307 H   0  0  0  0  0  0  0  0  0  0  0  0
   -3.0901    2.9747    4.6483 H   0  0  0  0  0  0  0  0  0  0  0  0
   -6.3666   -0.7068    4.5895 H   0  0  0  0  0  0  0  0  0  0  0  0
   -5.8198    4.1982    4.8497 H   0  0  0  0  0  0  0  0  0  0  0  0
   -7.8633   -1.9580    0.8219 H   0  0  0  0  0  0  0  0  0  0  0  0
   -7.2480   -3.6282    0.8158 H   0  0  0  0  0  0  0  0  0  0  0  0
   -8.3774   -3.1004    2.0863 H   0  0  0  0  0  0  0  0  0  0  0  0
   -4.0048   -2.4263   -2.7785 H   0  0  0  0  0  0  0  0  0  0  0  0
   -4.6249   -0.7435   -2.7723 H   0  0  0  0  0  0  0  0  0  0  0  0
   -3.7360    0.0407   -4.9266 H   0  0  0  0  0  0  0  0  0  0  0  0
   -3.2072    1.1238   -3.6168 H   0  0  0  0  0  0  0  0  0  0  0  0
   -0.9540    2.0331   -3.5899 H   0  0  0  0  0  0  0  0  0  0  0  0
    1.0035    2.6962   -4.9284 H   0  0  0  0  0  0  0  0  0  0  0  0
    1.3437    1.7373   -7.1707 H   0  0  0  0  0  0  0  0  0  0  0  0
   -0.2731    0.1146   -8.0741 H   0  0  0  0  0  0  0  0  0  0  0  0
   -2.2261   -0.5548   -6.7322 H   0  0  0  0  0  0  0  0  0  0  0  0
   -0.6620   -0.2273   -2.5946 H   0  0  0  0  0  0  0  0  0  0  0  0
  1  2  1  0  0  0  0
  1 35  1  0  0  0  0
  1 36  1  0  0  0  0
  1 37  1  0  0  0  0
  2  3  1  0  0  0  0
  2 38  1  0  0  0  0
  2 39  1  0  0  0  0
  3 23  1  0  0  0  0
  3  4  1  0  0  0  0
  4  5  2  0  0  0  0
  4  6  1  0  0  0  0
  6 10  1  0  0  0  0
  6  7  2  0  0  0  0
  7  8  1  0  0  0  0
  7 22  1  0  0  0  0
  8  9  2  0  0  0  0
  9 10  1  0  0  0  0
  9 20  1  0  0  0  0
 10 11  1  0  0  0  0
 11 12  1  0  0  0  0
 11 40  1  0  0  0  0
 11 41  1  0  0  0  0
 12 17  2  0  0  0  0
 12 13  1  0  0  0  0
 13 14  2  0  0  0  0
 13 42  1  0  0  0  0
 14 15  1  0  0  0  0
 14 43  1  0  0  0  0
 15 16  2  0  0  0  0
 15 19  1  0  0  0  0
 16 17  1  0  0  0  0
 16 18  1  0  0  0  0
 17 44  1  0  0  0  0
 19 45  1  0  0  0  0
 20 21  1  0  0  0  0
 21 46  1  0  0  0  0
 21 47  1  0  0  0  0
 21 48  1  0  0  0  0
 22 27  1  0  0  0  0
 22 23  1  0  0  0  0
 23 24  2  0  0  0  0
 24 25  1  0  0  0  0
 24 58  1  0  0  0  0
 25 26  1  0  0  0  0
 25 27  1  0  0  0  0
 25 28  1  0  0  0  0
 27 49  1  0  0  0  0
 27 50  1  0  0  0  0
 28 29  1  0  0  0  0
 28 51  1  0  0  0  0
 28 52  1  0  0  0  0
 29 34  2  0  0  0  0
 29 30  1  0  0  0  0
 30 31  2  0  0  0  0
 30 53  1  0  0  0  0
 31 32  1  0  0  0  0
 31 54  1  0  0  0  0
 32 33  2  0  0  0  0
 32 55  1  0  0  0  0
 33 34  1  0  0  0  0
 33 56  1  0  0  0  0
 34 57  1  0  0  0  0
M  CHG  1  24   1
M  END
$$$$
CHEMBL306666
  -OEChem-07121202283D

 63 68  0     1  0  0  0  0  0999 V2000
   -0.0178    1.4608    0.0101 C   0  0  0  0  0  0  0  0  0  0  0  0
    0.0021   -0.0041    0.0020 N   0  0  0  0  0  0  0  0  0  0  0  0
    0.0054   -0.6573   -1.1733 C   0  0  0  0  0  0  0  0  0  0  0  0
   -0.0091   -0.0326   -2.2187 O   0  0  0  0  0  0  0  0  0  0  0  0
    0.0253   -2.0678   -1.1930 C   0  0  0  0  0  0  0  0  0  0  0  0
    0.0428   -2.7648    0.0060 C   0  0  0  0  0  0  0  0  0  0  0  0
    0.0601   -4.0673   -0.2928 N   0  0  0  0  0  0  0  0  0  0  0  0
    0.0542   -4.2242   -1.5919 C   0  0  0  0  0  0  0  0  0  0  0  0
    0.0329   -3.0197   -2.1947 N   0  0  0  0  0  0  0  0  0  0  0  0
    0.0195   -2.7671   -3.6376 C   0  0  0  0  0  0  0  0  0  0  0  0
    1.4571   -2.6575   -4.1496 C   0  0  0  0  0  0  0  0  0  0  0  0
    2.1269   -1.4294   -3.5299 C   0  0  0  0  0  0  0  0  0  0  0  0
    3.5646   -1.3198   -4.0419 C   0  0  0  0  0  0  0  0  0  0  0  0
    3.5541   -1.1806   -5.5655 C   0  0  0  0  0  0  0  0  0  0  0  0
    2.8843   -2.4087   -6.1852 C   0  0  0  0  0  0  0  0  0  0  0  0
    1.4467   -2.5183   -5.6732 C   0  0  0  0  0  0  0  0  0  0  0  0
    0.0695   -5.5513   -2.3056 C   0  0  0  0  0  0  0  0  0  0  0  0
   -1.3461   -6.0146   -2.5351 C   0  0  0  0  0  0  0  0  0  0  0  0
   -1.9826   -6.7892   -1.5834 C   0  0  0  0  0  0  0  0  0  0  0  0
   -3.2811   -7.2142   -1.7939 C   0  0  0  0  0  0  0  0  0  0  0  0
   -3.9431   -6.8642   -2.9558 C   0  0  0  0  0  0  0  0  0  0  0  0
   -3.3069   -6.0888   -3.9071 C   0  0  0  0  0  0  0  0  0  0  0  0
   -2.0099   -5.6603   -3.6947 C   0  0  0  0  0  0  0  0  0  0  0  0
    0.0390   -2.0621    1.2023 N   0  0  0  0  0  0  0  0  0  0  0  0
    0.0228   -0.6909    1.2067 C   0  0  0  0  0  0  0  0  0  0  0  0
    0.0232   -0.1825    2.4083 N   0  3  0  0  0  0  0  0  0  0  0  0
    0.0515   -1.2406    3.4216 C   0  0  1  0  0  0  0  0  0  0  0  0
   -0.8088   -1.1891    4.0888 H   0  0  0  0  0  0  0  0  0  0  0  0
    0.0538   -2.5462    2.5925 C   0  0  2  0  0  0  0  0  0  0  0  0
   -0.7960   -3.1915    2.8149 H   0  0  0  0  0  0  0  0  0  0  0  0
    1.4070   -3.2270    2.8788 C   0  0  0  0  0  0  0  0  0  0  0  0
    2.3282   -2.0707    3.3395 C   0  0  0  0  0  0  0  0  0  0  0  0
    1.3841   -1.1747    4.1950 C   0  0  0  0  0  0  0  0  0  0  0  0
    1.0048    1.8381    0.0023 H   0  0  0  0  0  0  0  0  0  0  0  0
   -0.5450    1.8219   -0.8730 H   0  0  0  0  0  0  0  0  0  0  0  0
   -0.5280    1.8123    0.9069 H   0  0  0  0  0  0  0  0  0  0  0  0
   -0.4855   -3.5887   -4.1457 H   0  0  0  0  0  0  0  0  0  0  0  0
   -0.5098   -1.8356   -3.8385 H   0  0  0  0  0  0  0  0  0  0  0  0
    2.0115   -3.5534   -3.8704 H   0  0  0  0  0  0  0  0  0  0  0  0
    1.5725   -0.5334   -3.8091 H   0  0  0  0  0  0  0  0  0  0  0  0
    2.1344   -1.5285   -2.4444 H   0  0  0  0  0  0  0  0  0  0  0  0
    4.0418   -0.4449   -3.6004 H   0  0  0  0  0  0  0  0  0  0  0  0
    4.1190   -2.2157   -3.7626 H   0  0  0  0  0  0  0  0  0  0  0  0
    2.9997   -0.2846   -5.8447 H   0  0  0  0  0  0  0  0  0  0  0  0
    4.5783   -1.1025   -5.9302 H   0  0  0  0  0  0  0  0  0  0  0  0
    2.8768   -2.3095   -7.2707 H   0  0  0  0  0  0  0  0  0  0  0  0
    3.4387   -3.3046   -5.9060 H   0  0  0  0  0  0  0  0  0  0  0  0
    0.9695   -3.3932   -6.1147 H   0  0  0  0  0  0  0  0  0  0  0  0
    0.8922   -1.6223   -5.9524 H   0  0  0  0  0  0  0  0  0  0  0  0
    0.5761   -5.4424   -3.2646 H   0  0  0  0  0  0  0  0  0  0  0  0
    0.5978   -6.2852   -1.6970 H   0  0  0  0  0  0  0  0  0  0  0  0
   -1.4654   -7.0627   -0.6756 H   0  0  0  0  0  0  0  0  0  0  0  0
   -3.7782   -7.8200   -1.0507 H   0  0  0  0  0  0  0  0  0  0  0  0
   -4.9574   -7.1968   -3.1206 H   0  0  0  0  0  0  0  0  0  0  0  0
   -3.8240   -5.8156   -4.8150 H   0  0  0  0  0  0  0  0  0  0  0  0
   -1.5141   -5.0514   -4.4362 H   0  0  0  0  0  0  0  0  0  0  0  0
    1.3006   -3.9681    3.6710 H   0  0  0  0  0  0  0  0  0  0  0  0
    1.7999   -3.6895    1.9734 H   0  0  0  0  0  0  0  0  0  0  0  0
    3.1475   -2.4495    3.9506 H   0  0  0  0  0  0  0  0  0  0  0  0
    2.7088   -1.5152    2.4825 H   0  0  0  0  0  0  0  0  0  0  0  0
    1.7428   -0.1468    4.2495 H   0  0  0  0  0  0  0  0  0  0  0  0
    1.2656   -1.5917    5.1951 H   0  0  0  0  0  0  0  0  0  0  0  0
    0.0072    0.7673    2.6043 H   0  0  0  0  0  0  0  0  0  0  0  0
  1  2  1  0  0  0  0
  1 34  1  0  0  0  0
  1 35  1  0  0  0  0
  1 36  1  0  0  0  0
  2 25  1  0  0  0  0
  2  3  1  0  0  0  0
  3  4  2  0  0  0  0
  3  5  1  0  0  0  0
  5  9  1  0  0  0  0
  5  6  2  0  0  0  0
  6  7  1  0  0  0  0
  6 24  1  0  0  0  0
  7  8  2  0  0  0  0
  8  9  1  0  0  0  0
  8 17  1  0  0  0  0
  9 10  1  0  0  0  0
 10 11  1  0  0  0  0
 10 37  1  0  0  0  0
 10 38  1  0  0  0  0
 11 16  1  0  0  0  0
 11 12  1  0  0  0  0
 11 39  1  0  0  0  0
 12 13  1  0  0  0  0
 12 40  1  0  0  0  0
 12 41  1  0  0  0  0
 13 14  1  0  0  0  0
 13 42  1  0  0  0  0
 13 43  1  0  0  0  0
 14 15  1  0  0  0  0
 14 44  1  0  0  0  0
 14 45  1  0  0  0  0
 15 16  1  0  0  0  0
 15 46  1  0  0  0  0
 15 47  1  0  0  0  0
 16 48  1  0  0  0  0
 16 49  1  0  0  0  0
 17 18  1  0  0  0  0
 17 50  1  0  0  0  0
 17 51  1  0  0  0  0
 18 23  2  0  0  0  0
 18 19  1  0  0  0  0
 19 20  2  0  0  0  0
 19 52  1  0  0  0  0
 20 21  1  0  0  0  0
 20 53  1  0  0  0  0
 21 22  2  0  0  0  0
 21 54  1  0  0  0  0
 22 23  1  0  0  0  0
 22 55  1  0  0  0  0
 23 56  1  0  0  0  0
 24 29  1  0  0  0  0
 24 25  1  0  0  0  0
 25 26  2  0  0  0  0
 26 27  1  0  0  0  0
 26 63  1  0  0  0  0
 27 28  1  0  0  0  0
 27 33  1  0  0  0  0
 27 29  1  0  0  0  0
 29 30  1  0  0  0  0
 29 31  1  0  0  0  0
 31 32  1  0  0  0  0
 31 57  1  0  0  0  0
 31 58  1  0  0  0  0
 32 33  1  0  0  0  0
 32 59  1  0  0  0  0
 32 60  1  0  0  0  0
 33 61  1  0  0  0  0
 33 62  1  0  0  0  0
M  CHG  1  26   1
M  END
$$$$
CHEMBL306666
  -OEChem-07121202283D

 64 69  0     1  0  0  0  0  0999 V2000
   -0.0178    1.4608    0.0101 C   0  0  0  0  0  0  0  0  0  0  0  0
    0.0021   -0.0041    0.0020 N   0  0  0  0  0  0  0  0  0  0  0  0
    0.0054   -0.6573   -1.1733 C   0  0  0  0  0  0  0  0  0  0  0  0
   -0.0083   -0.0326   -2.2187 O   0  0  0  0  0  0  0  0  0  0  0  0
    0.0253   -2.0678   -1.1930 C   0  0  0  0  0  0  0  0  0  0  0  0
    0.0428   -2.7648    0.0060 C   0  0  0  0  0  0  0  0  0  0  0  0
    0.0601   -4.0673   -0.2928 N   0  3  0  0  0  0  0  0  0  0  0  0
    0.0542   -4.2242   -1.5919 C   0  0  0  0  0  0  0  0  0  0  0  0
    0.0329   -3.0197   -2.1947 N   0  0  0  0  0  0  0  0  0  0  0  0
    0.0195   -2.7671   -3.6376 C   0  0  0  0  0  0  0  0  0  0  0  0
    1.4571   -2.6575   -4.1496 C   0  0  0  0  0  0  0  0  0  0  0  0
    2.1269   -1.4294   -3.5299 C   0  0  0  0  0  0  0  0  0  0  0  0
    3.5646   -1.3198   -4.0419 C   0  0  0  0  0  0  0  0  0  0  0  0
    3.5541   -1.1806   -5.5655 C   0  0  0  0  0  0  0  0  0  0  0  0
    2.8843   -2.4087   -6.1852 C   0  0  0  0  0  0  0  0  0  0  0  0
    1.4467   -2.5183   -5.6732 C   0  0  0  0  0  0  0  0  0  0  0  0
    0.0695   -5.5513   -2.3056 C   0  0  0  0  0  0  0  0  0  0  0  0
   -1.3392   -6.0732   -2.4261 C   0  0  0  0  0  0  0  0  0  0  0  0
   -1.8683   -6.8710   -1.4289 C   0  0  0  0  0  0  0  0  0  0  0  0
   -3.1604   -7.3497   -1.5393 C   0  0  0  0  0  0  0  0  0  0  0  0
   -3.9235   -7.0302   -2.6468 C   0  0  0  0  0  0  0  0  0  0  0  0
   -3.3947   -6.2316   -3.6435 C   0  0  0  0  0  0  0  0  0  0  0  0
   -2.1041   -5.7494   -3.5310 C   0  0  0  0  0  0  0  0  0  0  0  0
    0.0390   -2.0621    1.2023 N   0  0  0  0  0  0  0  0  0  0  0  0
    0.0228   -0.6909    1.2067 C   0  0  0  0  0  0  0  0  0  0  0  0
    0.0232   -0.1825    2.4083 N   0  3  0  0  0  0  0  0  0  0  0  0
    0.0515   -1.2406    3.4216 C   0  0  1  0  0  0  0  0  0  0  0  0
   -0.8088   -1.1891    4.0888 H   0  0  0  0  0  0  0  0  0  0  0  0
    0.0538   -2.5462    2.5925 C   0  0  2  0  0  0  0  0  0  0  0  0
   -0.7960   -3.1915    2.8149 H   0  0  0  0  0  0  0  0  0  0  0  0
    1.4070   -3.2270    2.8788 C   0  0  0  0  0  0  0  0  0  0  0  0
    2.3282   -2.0707    3.3395 C   0  0  0  0  0  0  0  0  0  0  0  0
    1.3841   -1.1747    4.1950 C   0  0  0  0  0  0  0  0  0  0  0  0
    1.0048    1.8381    0.0023 H   0  0  0  0  0  0  0  0  0  0  0  0
   -0.5450    1.8219   -0.8730 H   0  0  0  0  0  0  0  0  0  0  0  0
   -0.5280    1.8123    0.9069 H   0  0  0  0  0  0  0  0  0  0  0  0
   -0.4855   -3.5887   -4.1457 H   0  0  0  0  0  0  0  0  0  0  0  0
   -0.5098   -1.8356   -3.8385 H   0  0  0  0  0  0  0  0  0  0  0  0
    2.0115   -3.5534   -3.8704 H   0  0  0  0  0  0  0  0  0  0  0  0
    1.5725   -0.5334   -3.8091 H   0  0  0  0  0  0  0  0  0  0  0  0
    2.1344   -1.5285   -2.4444 H   0  0  0  0  0  0  0  0  0  0  0  0
    4.0418   -0.4449   -3.6004 H   0  0  0  0  0  0  0  0  0  0  0  0
    4.1190   -2.2157   -3.7626 H   0  0  0  0  0  0  0  0  0  0  0  0
    2.9997   -0.2846   -5.8447 H   0  0  0  0  0  0  0  0  0  0  0  0
    4.5783   -1.1025   -5.9302 H   0  0  0  0  0  0  0  0  0  0  0  0
    2.8768   -2.3095   -7.2707 H   0  0  0  0  0  0  0  0  0  0  0  0
    3.4387   -3.3046   -5.9060 H   0  0  0  0  0  0  0  0  0  0  0  0
    0.9695   -3.3932   -6.1147 H   0  0  0  0  0  0  0  0  0  0  0  0
    0.8922   -1.6223   -5.9524 H   0  0  0  0  0  0  0  0  0  0  0  0
    0.4960   -5.4239   -3.3006 H   0  0  0  0  0  0  0  0  0  0  0  0
    0.6728   -6.2612   -1.7398 H   0  0  0  0  0  0  0  0  0  0  0  0
   -1.2720   -7.1207   -0.5637 H   0  0  0  0  0  0  0  0  0  0  0  0
   -3.5735   -7.9736   -0.7606 H   0  0  0  0  0  0  0  0  0  0  0  0
   -4.9328   -7.4047   -2.7334 H   0  0  0  0  0  0  0  0  0  0  0  0
   -3.9909   -5.9822   -4.5089 H   0  0  0  0  0  0  0  0  0  0  0  0
   -1.6922   -5.1224   -4.3080 H   0  0  0  0  0  0  0  0  0  0  0  0
    1.3006   -3.9681    3.6710 H   0  0  0  0  0  0  0  0  0  0  0  0
    1.7999   -3.6895    1.9734 H   0  0  0  0  0  0  0  0  0  0  0  0
    3.1475   -2.4495    3.9506 H   0  0  0  0  0  0  0  0  0  0  0  0
    2.7088   -1.5152    2.4825 H   0  0  0  0  0  0  0  0  0  0  0  0
    1.7428   -0.1468    4.2495 H   0  0  0  0  0  0  0  0  0  0  0  0
    1.2656   -1.5917    5.1951 H   0  0  0  0  0  0  0  0  0  0  0  0
    0.0072    0.7673    2.6043 H   0  0  0  0  0  0  0  0  0  0  0  0
    0.0748   -4.7883    0.3560 H   0  0  0  0  0  0  0  0  0  0  0  0
  1  2  1  0  0  0  0
  1 34  1  0  0  0  0
  1 35  1  0  0  0  0
  1 36  1  0  0  0  0
  2 25  1  0  0  0  0
  2  3  1  0  0  0  0
  3  4  2  0  0  0  0
  3  5  1  0  0  0  0
  5  9  1  0  0  0  0
  5  6  2  0  0  0  0
  6  7  1  0  0  0  0
  6 24  1  0  0  0  0
  7  8  2  0  0  0  0
  7 64  1  0  0  0  0
  8  9  1  0  0  0  0
  8 17  1  0  0  0  0
  9 10  1  0  0  0  0
 10 11  1  0  0  0  0
 10 37  1  0  0  0  0
 10 38  1  0  0  0  0
 11 16  1  0  0  0  0
 11 12  1  0  0  0  0
 11 39  1  0  0  0  0
 12 13  1  0  0  0  0
 12 40  1  0  0  0  0
 12 41  1  0  0  0  0
 13 14  1  0  0  0  0
 13 42  1  0  0  0  0
 13 43  1  0  0  0  0
 14 15  1  0  0  0  0
 14 44  1  0  0  0  0
 14 45  1  0  0  0  0
 15 16  1  0  0  0  0
 15 46  1  0  0  0  0
 15 47  1  0  0  0  0
 16 48  1  0  0  0  0
 16 49  1  0  0  0  0
 17 18  1  0  0  0  0
 17 50  1  0  0  0  0
 17 51  1  0  0  0  0
 18 23  2  0  0  0  0
 18 19  1  0  0  0  0
 19 20  2  0  0  0  0
 19 52  1  0  0  0  0
 20 21  1  0  0  0  0
 20 53  1  0  0  0  0
 21 22  2  0  0  0  0
 21 54  1  0  0  0  0
 22 23  1  0  0  0  0
 22 55  1  0  0  0  0
 23 56  1  0  0  0  0
 24 29  1  0  0  0  0
 24 25  1  0  0  0  0
 25 26  2  0  0  0  0
 26 27  1  0  0  0  0
 26 63  1  0  0  0  0
 27 28  1  0  0  0  0
 27 33  1  0  0  0  0
 27 29  1  0  0  0  0
 29 30  1  0  0  0  0
 29 31  1  0  0  0  0
 31 32  1  0  0  0  0
 31 57  1  0  0  0  0
 31 58  1  0  0  0  0
 32 33  1  0  0  0  0
 32 59  1  0  0  0  0
 32 60  1  0  0  0  0
 33 61  1  0  0  0  0
 33 62  1  0  0  0  0
M  CHG  2   7   1  26   1
M  END
$$$$
CHEMBL157819
  -OEChem-07121202283D

 53 58  0     1  0  0  0  0  0999 V2000
   -0.0167    1.3781    0.0096 C   0  0  0  0  0  0  0  0  0  0  0  0
    1.1709    2.0855    0.0021 C   0  0  0  0  0  0  0  0  0  0  0  0
    2.3773    1.4107   -0.0130 C   0  0  0  0  0  0  0  0  0  0  0  0
    2.3960    0.0285   -0.0201 C   0  0  0  0  0  0  0  0  0  0  0  0
    1.2084   -0.6789   -0.0117 C   0  0  0  0  0  0  0  0  0  0  0  0
    0.0021   -0.0041    0.0020 C   0  0  0  0  0  0  0  0  0  0  0  0
    3.7112   -0.7071   -0.0376 C   0  0  0  0  0  0  0  0  0  0  0  0
    4.1410   -0.9464    1.3041 O   0  0  0  0  0  0  0  0  0  0  0  0
    5.3077   -1.5988    1.4650 C   0  0  0  0  0  0  0  0  0  0  0  0
    5.9435   -1.9553    0.4929 O   0  0  0  0  0  0  0  0  0  0  0  0
    5.7703   -1.8565    2.7044 N   0  0  0  0  0  0  0  0  0  0  0  0
    5.1275   -1.5032    3.9744 C   0  0  0  0  0  0  0  0  0  0  0  0
    6.0184   -1.9986    5.0865 C   0  0  0  0  0  0  0  0  0  0  0  0
    5.8576   -1.9129    6.4917 C   0  0  0  0  0  0  0  0  0  0  0  0
    6.9059   -2.4955    7.3451 C   0  0  0  0  0  0  0  0  0  0  0  0
    6.8234   -2.4539    8.7366 C   0  0  0  0  0  0  0  0  0  0  0  0
    7.8202   -3.0081    9.4903 C   0  0  0  0  0  0  0  0  0  0  0  0
    8.9122   -3.6111    8.8813 C   0  0  0  0  0  0  0  0  0  0  0  0
    9.0129   -3.6623    7.5084 C   0  0  0  0  0  0  0  0  0  0  0  0
    8.0088   -3.1045    6.7214 C   0  0  0  0  0  0  0  0  0  0  0  0
    8.0766   -3.1386    5.3493 N   0  0  0  0  0  0  0  0  0  0  0  0
    7.1055   -2.5992    4.5610 C   0  0  0  0  0  0  0  0  0  0  0  0
    7.0133   -2.5515    3.0522 C   0  0  2  0  0  0  0  0  0  0  0  0
    8.1933   -1.7981    2.4943 C   0  0  0  0  0  0  0  0  0  0  0  0
    8.2008   -0.4158    2.5139 C   0  0  0  0  0  0  0  0  0  0  0  0
    9.2810    0.2798    2.0038 C   0  0  0  0  0  0  0  0  0  0  0  0
   10.3594   -0.4077    1.4709 C   0  0  0  0  0  0  0  0  0  0  0  0
   10.3518   -1.8002    1.4511 C   0  0  0  0  0  0  0  0  0  0  0  0
    9.2682   -2.4908    1.9693 C   0  0  0  0  0  0  0  0  0  0  0  0
   11.5138   -2.2348    0.8818 O   0  0  0  0  0  0  0  0  0  0  0  0
   12.0498   -1.0950    0.1840 C   0  0  0  0  0  0  0  0  0  0  0  0
   11.5262    0.0302    0.9141 O   0  0  0  0  0  0  0  0  0  0  0  0
    4.8791   -1.3718    6.9799 O   0  0  0  0  0  0  0  0  0  0  0  0
   -0.9591    1.9053    0.0259 H   0  0  0  0  0  0  0  0  0  0  0  0
    1.1563    3.1654    0.0076 H   0  0  0  0  0  0  0  0  0  0  0  0
    3.3051    1.9634   -0.0196 H   0  0  0  0  0  0  0  0  0  0  0  0
    1.2231   -1.7588   -0.0176 H   0  0  0  0  0  0  0  0  0  0  0  0
   -0.9258   -0.5567    0.0082 H   0  0  0  0  0  0  0  0  0  0  0  0
    3.5884   -1.6586   -0.5549 H   0  0  0  0  0  0  0  0  0  0  0  0
    4.4573   -0.1052   -0.5563 H   0  0  0  0  0  0  0  0  0  0  0  0
    5.0154   -0.4213    4.0441 H   0  0  0  0  0  0  0  0  0  0  0  0
    4.1510   -1.9830    4.0410 H   0  0  0  0  0  0  0  0  0  0  0  0
    5.9766   -1.9858    9.2163 H   0  0  0  0  0  0  0  0  0  0  0  0
    7.7578   -2.9763   10.5680 H   0  0  0  0  0  0  0  0  0  0  0  0
    9.6916   -4.0445    9.4905 H   0  0  0  0  0  0  0  0  0  0  0  0
    9.8667   -4.1338    7.0445 H   0  0  0  0  0  0  0  0  0  0  0  0
    6.9959   -3.5640    2.6489 H   0  0  0  0  0  0  0  0  0  0  0  0
    7.3608    0.1219    2.9283 H   0  0  0  0  0  0  0  0  0  0  0  0
    9.2843    1.3597    2.0204 H   0  0  0  0  0  0  0  0  0  0  0  0
    9.2616   -3.5707    1.9593 H   0  0  0  0  0  0  0  0  0  0  0  0
   13.1392   -1.1015    0.2199 H   0  0  0  0  0  0  0  0  0  0  0  0
   11.6996   -1.0784   -0.8481 H   0  0  0  0  0  0  0  0  0  0  0  0
    8.8415   -3.5610    4.9281 H   0  0  0  0  0  0  0  0  0  0  0  0
  1  6  2  0  0  0  0
  1  2  1  0  0  0  0
  1 34  1  0  0  0  0
  2  3  2  0  0  0  0
  2 35  1  0  0  0  0
  3  4  1  0  0  0  0
  3 36  1  0  0  0  0
  4  5  2  0  0  0  0
  4  7  1  0  0  0  0
  5  6  1  0  0  0  0
  5 37  1  0  0  0  0
  6 38  1  0  0  0  0
  7  8  1  0  0  0  0
  7 39  1  0  0  0  0
  7 40  1  0  0  0  0
  8  9  1  0  0  0  0
  9 10  2  0  0  0  0
  9 11  1  0  0  0  0
 11 23  1  0  0  0  0
 11 12  1  0  0  0  0
 12 13  1  0  0  0  0
 12 41  1  0  0  0  0
 12 42  1  0  0  0  0
 13 22  2  0  0  0  0
 13 14  1  0  0  0  0
 14 15  1  0  0  0  0
 14 33  2  0  0  0  0
 15 20  2  0  0  0  0
 15 16  1  0  0  0  0
 16 17  2  0  0  0  0
 16 43  1  0  0  0  0
 17 18  1  0  0  0  0
 17 44  1  0  0  0  0
 18 19  2  0  0  0  0
 18 45  1  0  0  0  0
 19 20  1  0  0  0  0
 19 46  1  0  0  0  0
 20 21  1  0  0  0  0
 21 22  1  0  0  0  0
 21 53  1  0  0  0  0
 22 23  1  0  0  0  0
 23 24  1  0  0  0  0
 23 47  1  0  0  0  0
 24 29  2  0  0  0  0
 24 25  1  0  0  0  0
 25 26  2  0  0  0  0
 25 48  1  0  0  0  0
 26 27  1  0  0  0  0
 26 49  1  0  0  0  0
 27 32  1  0  0  0  0
 27 28  2  0  0  0  0
 28 29  1  0  0  0  0
 28 30  1  0  0  0  0
 29 50  1  0  0  0  0
 30 31  1  0  0  0  0
 31 32  1  0  0  0  0
 31 51  1  0  0  0  0
 31 52  1  0  0  0  0
M  END
$$$$
CHEMBL157819
  -OEChem-07121202283D

 53 58  0     1  0  0  0  0  0999 V2000
   -0.0167    1.3781    0.0096 C   0  0  0  0  0  0  0  0  0  0  0  0
    1.1709    2.0855    0.0021 C   0  0  0  0  0  0  0  0  0  0  0  0
    2.3773    1.4107   -0.0130 C   0  0  0  0  0  0  0  0  0  0  0  0
    2.3960    0.0285   -0.0201 C   0  0  0  0  0  0  0  0  0  0  0  0
    1.2084   -0.6789   -0.0117 C   0  0  0  0  0  0  0  0  0  0  0  0
    0.0021   -0.0041    0.0020 C   0  0  0  0  0  0  0  0  0  0  0  0
    3.7112   -0.7071   -0.0376 C   0  0  0  0  0  0  0  0  0  0  0  0
    4.1410   -0.9464    1.3041 O   0  0  0  0  0  0  0  0  0  0  0  0
    5.3077   -1.5988    1.4650 C   0  0  0  0  0  0  0  0  0  0  0  0
    5.9435   -1.9553    0.4929 O   0  0  0  0  0  0  0  0  0  0  0  0
    5.7703   -1.8565    2.7044 N   0  0  0  0  0  0  0  0  0  0  0  0
    5.1275   -1.5032    3.9744 C   0  0  0  0  0  0  0  0  0  0  0  0
    6.0184   -1.9986    5.0865 C   0  0  0  0  0  0  0  0  0  0  0  0
    5.8576   -1.9129    6.4917 C   0  0  0  0  0  0  0  0  0  0  0  0
    6.9059   -2.4955    7.3451 C   0  0  0  0  0  0  0  0  0  0  0  0
    6.8234   -2.4539    8.7366 C   0  0  0  0  0  0  0  0  0  0  0  0
    7.8202   -3.0081    9.4903 C   0  0  0  0  0  0  0  0  0  0  0  0
    8.9122   -3.6111    8.8813 C   0  0  0  0  0  0  0  0  0  0  0  0
    9.0129   -3.6623    7.5084 C   0  0  0  0  0  0  0  0  0  0  0  0
    8.0088   -3.1045    6.7214 C   0  0  0  0  0  0  0  0  0  0  0  0
    8.0766   -3.1386    5.3493 N   0  0  0  0  0  0  0  0  0  0  0  0
    7.1055   -2.5992    4.5610 C   0  0  0  0  0  0  0  0  0  0  0  0
    7.0133   -2.5515    3.0522 C   0  0  1  0  0  0  0  0  0  0  0  0
    6.9892   -3.9514    2.4946 C   0  0  0  0  0  0  0  0  0  0  0  0
    5.8127   -4.6775    2.5041 C   0  0  0  0  0  0  0  0  0  0  0  0
    5.7855   -5.9617    1.9934 C   0  0  0  0  0  0  0  0  0  0  0  0
    6.9385   -6.5247    1.4708 C   0  0  0  0  0  0  0  0  0  0  0  0
    8.1236   -5.7933    1.4613 C   0  0  0  0  0  0  0  0  0  0  0  0
    8.1422   -4.5046    1.9696 C   0  0  0  0  0  0  0  0  0  0  0  0
    9.1046   -6.5595    0.9011 O   0  0  0  0  0  0  0  0  0  0  0  0
    8.6076   -7.9103    0.9413 C   0  0  0  0  0  0  0  0  0  0  0  0
    7.1769   -7.7491    0.9165 O   0  0  0  0  0  0  0  0  0  0  0  0
    4.8791   -1.3718    6.9799 O   0  0  0  0  0  0  0  0  0  0  0  0
   -0.9591    1.9053    0.0259 H   0  0  0  0  0  0  0  0  0  0  0  0
    1.1563    3.1654    0.0076 H   0  0  0  0  0  0  0  0  0  0  0  0
    3.3051    1.9634   -0.0196 H   0  0  0  0  0  0  0  0  0  0  0  0
    1.2231   -1.7588   -0.0176 H   0  0  0  0  0  0  0  0  0  0  0  0
   -0.9258   -0.5567    0.0082 H   0  0  0  0  0  0  0  0  0  0  0  0
    3.5884   -1.6586   -0.5549 H   0  0  0  0  0  0  0  0  0  0  0  0
    4.4573   -0.1052   -0.5563 H   0  0  0  0  0  0  0  0  0  0  0  0
    5.0154   -0.4213    4.0441 H   0  0  0  0  0  0  0  0  0  0  0  0
    4.1510   -1.9830    4.0410 H   0  0  0  0  0  0  0  0  0  0  0  0
    5.9766   -1.9858    9.2163 H   0  0  0  0  0  0  0  0  0  0  0  0
    7.7578   -2.9763   10.5680 H   0  0  0  0  0  0  0  0  0  0  0  0
    9.6916   -4.0445    9.4905 H   0  0  0  0  0  0  0  0  0  0  0  0
    9.8667   -4.1338    7.0445 H   0  0  0  0  0  0  0  0  0  0  0  0
    7.8668   -2.0066    2.6487 H   0  0  0  0  0  0  0  0  0  0  0  0
    4.9131   -4.2405    2.9118 H   0  0  0  0  0  0  0  0  0  0  0  0
    4.8650   -6.5266    2.0021 H   0  0  0  0  0  0  0  0  0  0  0  0
    9.0587   -3.9335    1.9594 H   0  0  0  0  0  0  0  0  0  0  0  0
    8.9453   -8.4689    0.0684 H   0  0  0  0  0  0  0  0  0  0  0  0
    8.9212   -8.4066    1.8597 H   0  0  0  0  0  0  0  0  0  0  0  0
    8.8415   -3.5610    4.9281 H   0  0  0  0  0  0  0  0  0  0  0  0
  1  6  2  0  0  0  0
  1  2  1  0  0  0  0
  1 34  1  0  0  0  0
  2  3  2  0  0  0  0
  2 35  1  0  0  0  0
  3  4  1  0  0  0  0
  3 36  1  0  0  0  0
  4  5  2  0  0  0  0
  4  7  1  0  0  0  0
  5  6  1  0  0  0  0
  5 37  1  0  0  0  0
  6 38  1  0  0  0  0
  7  8  1  0  0  0  0
  7 39  1  0  0  0  0
  7 40  1  0  0  0  0
  8  9  1  0  0  0  0
  9 10  2  0  0  0  0
  9 11  1  0  0  0  0
 11 23  1  0  0  0  0
 11 12  1  0  0  0  0
 12 13  1  0  0  0  0
 12 41  1  0  0  0  0
 12 42  1  0  0  0  0
 13 22  2  0  0  0  0
 13 14  1  0  0  0  0
 14 15  1  0  0  0  0
 14 33  2  0  0  0  0
 15 20  2  0  0  0  0
 15 16  1  0  0  0  0
 16 17  2  0  0  0  0
 16 43  1  0  0  0  0
 17 18  1  0  0  0  0
 17 44  1  0  0  0  0
 18 19  2  0  0  0  0
 18 45  1  0  0  0  0
 19 20  1  0  0  0  0
 19 46  1  0  0  0  0
 20 21  1  0  0  0  0
 21 22  1  0  0  0  0
 21 53  1  0  0  0  0
 22 23  1  0  0  0  0
 23 24  1  0  0  0  0
 23 47  1  0  0  0  0
 24 29  2  0  0  0  0
 24 25  1  0  0  0  0
 25 26  2  0  0  0  0
 25 48  1  0  0  0  0
 26 27  1  0  0  0  0
 26 49  1  0  0  0  0
 27 32  1  0  0  0  0
 27 28  2  0  0  0  0
 28 29  1  0  0  0  0
 28 30  1  0  0  0  0
 29 50  1  0  0  0  0
 30 31  1  0  0  0  0
 31 32  1  0  0  0  0
 31 51  1  0  0  0  0
 31 52  1  0  0  0  0
M  END
$$$$
CHEMBL282796
  -OEChem-07121202283D

 68 71  0     0  0  0  0  0  0999 V2000
   -1.1609    1.2597   -0.7725 C   0  0  0  0  0  0  0  0  0  0  0  0
   -0.8569   -0.1235   -0.5821 O   0  0  0  0  0  0  0  0  0  0  0  0
    0.0288   -0.6850   -1.4461 C   0  0  0  0  0  0  0  0  0  0  0  0
    0.5841    0.0765   -2.4337 C   0  0  0  0  0  0  0  0  0  0  0  0
    1.5014   -0.4967   -3.3316 C   0  0  0  0  0  0  0  0  0  0  0  0
    2.0759    0.2844   -4.3505 C   0  0  0  0  0  0  0  0  0  0  0  0
    2.9768   -0.2766   -5.2340 C   0  0  0  0  0  0  0  0  0  0  0  0
    3.3363   -1.6890   -5.1105 C   0  0  0  0  0  0  0  0  0  0  0  0
    2.7637   -2.4598   -4.0971 C   0  0  0  0  0  0  0  0  0  0  0  0
    1.8417   -1.8660   -3.2008 C   0  0  0  0  0  0  0  0  0  0  0  0
    1.2585   -2.6281   -2.1778 C   0  0  0  0  0  0  0  0  0  0  0  0
    0.3672   -2.0392   -1.3101 C   0  0  0  0  0  0  0  0  0  0  0  0
   -0.1936   -2.7772   -0.3167 O   0  0  0  0  0  0  0  0  0  0  0  0
    0.1924   -4.1505   -0.2317 C   0  0  0  0  0  0  0  0  0  0  0  0
    3.1173   -3.8882   -3.9606 C   0  0  0  0  0  0  0  0  0  0  0  0
    2.1483   -4.8717   -4.1699 C   0  0  0  0  0  0  0  0  0  0  0  0
    2.4817   -6.2078   -4.0416 C   0  0  0  0  0  0  0  0  0  0  0  0
    3.7817   -6.5724   -3.7036 C   0  0  0  0  0  0  0  0  0  0  0  0
    4.7492   -5.5941   -3.4940 C   0  0  0  0  0  0  0  0  0  0  0  0
    4.4224   -4.2569   -3.6277 C   0  0  0  0  0  0  0  0  0  0  0  0
    6.0185   -5.9536   -3.1635 O   0  0  0  0  0  0  0  0  0  0  0  0
    6.9603   -4.8978   -2.9629 C   0  0  0  0  0  0  0  0  0  0  0  0
    4.1070   -7.8868   -3.5775 O   0  0  0  0  0  0  0  0  0  0  0  0
    4.5713   -8.5558   -4.7518 C   0  0  0  0  0  0  0  0  0  0  0  0
    1.5385   -7.1661   -4.2453 O   0  0  0  0  0  0  0  0  0  0  0  0
    0.2249   -6.7207   -4.5889 C   0  0  0  0  0  0  0  0  0  0  0  0
    4.2951   -2.2936   -6.0486 C   0  0  0  0  0  0  0  0  0  0  0  0
    5.4833   -2.2854   -5.7926 O   0  0  0  0  0  0  0  0  0  0  0  0
    3.8557   -2.8567   -7.1920 O   0  0  0  0  0  0  0  0  0  0  0  0
    4.8418   -3.4248   -8.0561 C   0  0  0  0  0  0  0  0  0  0  0  0
    3.5759    0.5482   -6.3023 C   0  0  0  0  0  0  0  0  0  0  0  0
    4.7771    0.5229   -6.4883 O   0  0  0  0  0  0  0  0  0  0  0  0
    2.7912    1.3289   -7.0712 N   0  0  0  0  0  0  0  0  0  0  0  0
    1.3473    1.5368   -6.8884 C   0  0  0  0  0  0  0  0  0  0  0  0
    0.8745    2.4820   -8.0129 C   0  0  0  0  0  0  0  0  0  0  0  0
    1.9675    2.3033   -9.0996 C   0  0  0  0  0  0  0  0  0  0  0  0
    3.2398    2.1209   -8.2309 C   0  0  0  0  0  0  0  0  0  0  0  0
   -0.2482    1.8484   -0.6799 H   0  0  0  0  0  0  0  0  0  0  0  0
   -1.5877    1.4047   -1.7649 H   0  0  0  0  0  0  0  0  0  0  0  0
   -1.8787    1.5812   -0.0178 H   0  0  0  0  0  0  0  0  0  0  0  0
    0.3184    1.1193   -2.5253 H   0  0  0  0  0  0  0  0  0  0  0  0
    1.8111    1.3273   -4.4426 H   0  0  0  0  0  0  0  0  0  0  0  0
    1.5105   -3.6727   -2.0694 H   0  0  0  0  0  0  0  0  0  0  0  0
   -0.0703   -4.6598   -1.1589 H   0  0  0  0  0  0  0  0  0  0  0  0
    1.2688   -4.2162   -0.0734 H   0  0  0  0  0  0  0  0  0  0  0  0
   -0.3270   -4.6229    0.6021 H   0  0  0  0  0  0  0  0  0  0  0  0
    1.1393   -4.5892   -4.4315 H   0  0  0  0  0  0  0  0  0  0  0  0
    5.1747   -3.4983   -3.4697 H   0  0  0  0  0  0  0  0  0  0  0  0
    7.9311   -5.3211   -2.7051 H   0  0  0  0  0  0  0  0  0  0  0  0
    7.0506   -4.3127   -3.8781 H   0  0  0  0  0  0  0  0  0  0  0  0
    6.6177   -4.2543   -2.1526 H   0  0  0  0  0  0  0  0  0  0  0  0
    3.7998   -8.5174   -5.5209 H   0  0  0  0  0  0  0  0  0  0  0  0
    5.4732   -8.0646   -5.1171 H   0  0  0  0  0  0  0  0  0  0  0  0
    4.7951   -9.5955   -4.5132 H   0  0  0  0  0  0  0  0  0  0  0  0
   -0.4278   -7.5833   -4.7231 H   0  0  0  0  0  0  0  0  0  0  0  0
   -0.1657   -6.0904   -3.7899 H   0  0  0  0  0  0  0  0  0  0  0  0
    0.2660   -6.1485   -5.5157 H   0  0  0  0  0  0  0  0  0  0  0  0
    4.3553   -3.8429   -8.9374 H   0  0  0  0  0  0  0  0  0  0  0  0
    5.5457   -2.6510   -8.3624 H   0  0  0  0  0  0  0  0  0  0  0  0
    5.3767   -4.2140   -7.5277 H   0  0  0  0  0  0  0  0  0  0  0  0
    0.8235    0.5836   -6.9606 H   0  0  0  0  0  0  0  0  0  0  0  0
    1.1586    1.9932   -5.9167 H   0  0  0  0  0  0  0  0  0  0  0  0
   -0.1000    2.1736   -8.3917 H   0  0  0  0  0  0  0  0  0  0  0  0
    0.8443    3.5136   -7.6623 H   0  0  0  0  0  0  0  0  0  0  0  0
    1.7743    1.4185   -9.7062 H   0  0  0  0  0  0  0  0  0  0  0  0
    2.0470    3.1933   -9.7238 H   0  0  0  0  0  0  0  0  0  0  0  0
    3.6212    3.0885   -7.9048 H   0  0  0  0  0  0  0  0  0  0  0  0
    4.0042    1.5788   -8.7876 H   0  0  0  0  0  0  0  0  0  0  0  0
  1  2  1  0  0  0  0
  1 38  1  0  0  0  0
  1 39  1  0  0  0  0
  1 40  1  0  0  0  0
  2  3  1  0  0  0  0
  3 12  2  0  0  0  0
  3  4  1  0  0  0  0
  4  5  2  0  0  0  0
  4 41  1  0  0  0  0
  5 10  1  0  0  0  0
  5  6  1  0  0  0  0
  6  7  2  0  0  0  0
  6 42  1  0  0  0  0
  7  8  1  0  0  0  0
  7 31  1  0  0  0  0
  8  9  2  0  0  0  0
  8 27  1  0  0  0  0
  9 10  1  0  0  0  0
  9 15  1  0  0  0  0
 10 11  2  0  0  0  0
 11 12  1  0  0  0  0
 11 43  1  0  0  0  0
 12 13  1  0  0  0  0
 13 14  1  0  0  0  0
 14 44  1  0  0  0  0
 14 45  1  0  0  0  0
 14 46  1  0  0  0  0
 15 20  2  0  0  0  0
 15 16  1  0  0  0  0
 16 17  2  0  0  0  0
 16 47  1  0  0  0  0
 17 18  1  0  0  0  0
 17 25  1  0  0  0  0
 18 19  2  0  0  0  0
 18 23  1  0  0  0  0
 19 20  1  0  0  0  0
 19 21  1  0  0  0  0
 20 48  1  0  0  0  0
 21 22  1  0  0  0  0
 22 49  1  0  0  0  0
 22 50  1  0  0  0  0
 22 51  1  0  0  0  0
 23 24  1  0  0  0  0
 24 52  1  0  0  0  0
 24 53  1  0  0  0  0
 24 54  1  0  0  0  0
 25 26  1  0  0  0  0
 26 55  1  0  0  0  0
 26 56  1  0  0  0  0
 26 57  1  0  0  0  0
 27 28  2  0  0  0  0
 27 29  1  0  0  0  0
 29 30  1  0  0  0  0
 30 58  1  0  0  0  0
 30 59  1  0  0  0  0
 30 60  1  0  0  0  0
 31 32  2  0  0  0  0
 31 33  1  0  0  0  0
 33 37  1  0  0  0  0
 33 34  1  0  0  0  0
 34 35  1  0  0  0  0
 34 61  1  0  0  0  0
 34 62  1  0  0  0  0
 35 36  1  0  0  0  0
 35 63  1  0  0  0  0
 35 64  1  0  0  0  0
 36 37  1  0  0  0  0
 36 65  1  0  0  0  0
 36 66  1  0  0  0  0
 37 67  1  0  0  0  0
 37 68  1  0  0  0  0
M  END
$$$$
CHEMBL203287
  -OEChem-07121202283D

 38 40  0     0  0  0  0  0  0999 V2000
   -0.0164    1.3553    0.0095 C   0  0  0  0  0  0  0  0  0  0  0  0
    1.1752    2.0420    0.0018 C   0  0  0  0  0  0  0  0  0  0  0  0
    2.3469    1.3290   -0.0132 C   0  0  0  0  0  0  0  0  0  0  0  0
    1.7525   -0.3546   -0.0166 S   0  0  0  0  0  0  0  0  0  0  0  0
    0.0021   -0.0041    0.0020 C   0  0  0  0  0  0  0  0  0  0  0  0
    3.7356    1.8239   -0.0238 C   0  0  0  0  0  0  0  0  0  0  0  0
    4.7930    0.9090   -0.0446 C   0  0  0  0  0  0  0  0  0  0  0  0
    6.0826    1.3679   -0.0544 C   0  0  0  0  0  0  0  0  0  0  0  0
    6.3028    2.7530   -0.0433 C   0  0  0  0  0  0  0  0  0  0  0  0
    5.1946    3.6207   -0.0224 C   0  0  0  0  0  0  0  0  0  0  0  0
    3.9644    3.1340   -0.0190 N   0  0  0  0  0  0  0  0  0  0  0  0
    5.4471    5.3644   -0.0081 S   0  0  0  0  0  0  0  0  0  0  0  0
    3.7682    6.0508    0.0173 C   0  0  0  0  0  0  0  0  0  0  0  0
    3.8410    7.5560    0.0313 C   0  0  0  0  0  0  0  0  0  0  0  0
    3.8933    8.2317    1.2378 C   0  0  0  0  0  0  0  0  0  0  0  0
    3.9596    9.6091    1.2583 C   0  0  0  0  0  0  0  0  0  0  0  0
    3.9744   10.3223    0.0570 C   0  0  0  0  0  0  0  0  0  0  0  0
    3.9217    9.6334   -1.1574 C   0  0  0  0  0  0  0  0  0  0  0  0
    3.8609    8.2555   -1.1626 C   0  0  0  0  0  0  0  0  0  0  0  0
    4.0447   11.7960    0.0707 C   0  0  0  0  0  0  0  0  0  0  0  0
    4.0902   12.3961    1.1352 O   0  0  0  0  0  0  0  0  0  0  0  0
    4.0574   12.4173   -0.9825 O   0  5  0  0  0  0  0  0  0  0  0  0
    7.6355    3.2768   -0.0525 C   0  0  0  0  0  0  0  0  0  0  0  0
    8.6927    3.6924   -0.0598 N   0  0  0  0  0  0  0  0  0  0  0  0
    7.2416    0.4050   -0.0763 C   0  0  0  0  0  0  0  0  0  0  0  0
    6.7573   -0.9075   -0.0834 F   0  0  0  0  0  0  0  0  0  0  0  0
    8.0091    0.6251   -1.2250 F   0  0  0  0  0  0  0  0  0  0  0  0
    8.0343    0.6034    1.0593 F   0  0  0  0  0  0  0  0  0  0  0  0
   -0.9550    1.8893    0.0258 H   0  0  0  0  0  0  0  0  0  0  0  0
    1.1881    3.1219    0.0071 H   0  0  0  0  0  0  0  0  0  0  0  0
   -0.8285   -0.6943    0.0068 H   0  0  0  0  0  0  0  0  0  0  0  0
    4.5935   -0.1524   -0.0524 H   0  0  0  0  0  0  0  0  0  0  0  0
    3.2275    5.7214   -0.8700 H   0  0  0  0  0  0  0  0  0  0  0  0
    3.2473    5.7040    0.9098 H   0  0  0  0  0  0  0  0  0  0  0  0
    3.8819    7.6790    2.1657 H   0  0  0  0  0  0  0  0  0  0  0  0
    3.9997   10.1352    2.2007 H   0  0  0  0  0  0  0  0  0  0  0  0
    3.9328   10.1782   -2.0898 H   0  0  0  0  0  0  0  0  0  0  0  0
    3.8246    7.7214   -2.1006 H   0  0  0  0  0  0  0  0  0  0  0  0
  1  5  2  0  0  0  0
  1  2  1  0  0  0  0
  1 29  1  0  0  0  0
  2  3  2  0  0  0  0
  2 30  1  0  0  0  0
  3  4  1  0  0  0  0
  3  6  1  0  0  0  0
  4  5  1  0  0  0  0
  5 31  1  0  0  0  0
  6 11  2  0  0  0  0
  6  7  1  0  0  0  0
  7  8  2  0  0  0  0
  7 32  1  0  0  0  0
  8  9  1  0  0  0  0
  8 25  1  0  0  0  0
  9 10  2  0  0  0  0
  9 23  1  0  0  0  0
 10 11  1  0  0  0  0
 10 12  1  0  0  0  0
 12 13  1  0  0  0  0
 13 14  1  0  0  0  0
 13 33  1  0  0  0  0
 13 34  1  0  0  0  0
 14 19  2  0  0  0  0
 14 15  1  0  0  0  0
 15 16  2  0  0  0  0
 15 35  1  0  0  0  0
 16 17  1  0  0  0  0
 16 36  1  0  0  0  0
 17 18  2  0  0  0  0
 17 20  1  0  0  0  0
 18 19  1  0  0  0  0
 18 37  1  0  0  0  0
 19 38  1  0  0  0  0
 20 21  2  0  0  0  0
 20 22  1  0  0  0  0
 23 24  3  0  0  0  0
 25 26  1  0  0  0  0
 25 27  1  0  0  0  0
 25 28  1  0  0  0  0
M  CHG  1  22  -1
M  END
$$$$
CHEMBL282709
  -OEChem-07121202283D

 50 54  0     1  0  0  0  0  0999 V2000
   -0.0187    1.5258    0.0104 C   0  0  0  0  0  0  0  0  0  0  0  0
    0.0021   -0.0041    0.0020 C   0  0  0  0  0  0  0  0  0  0  0  0
   -1.3723   -0.5112    0.0124 N   0  0  0  0  0  0  0  0  0  0  0  0
   -1.9784   -0.7393    1.1914 C   0  0  0  0  0  0  0  0  0  0  0  0
   -1.3938   -0.5276    2.2374 O   0  0  0  0  0  0  0  0  0  0  0  0
   -3.3521   -1.2457    1.1973 C   0  0  0  0  0  0  0  0  0  0  0  0
   -3.9920   -1.4748   -0.0393 C   0  0  0  0  0  0  0  0  0  0  0  0
   -5.2082   -1.9234    0.2123 N   0  0  0  0  0  0  0  0  0  0  0  0
   -5.3962   -1.9997    1.5390 C   0  0  0  0  0  0  0  0  0  0  0  0
   -4.2456   -1.5797    2.1772 N   0  0  0  0  0  0  0  0  0  0  0  0
   -4.0250   -1.5068    3.6236 C   0  0  0  0  0  0  0  0  0  0  0  0
   -4.4396   -0.1482    4.1271 C   0  0  0  0  0  0  0  0  0  0  0  0
   -3.5210    0.8846    4.1624 C   0  0  0  0  0  0  0  0  0  0  0  0
   -3.8984    2.1308    4.6239 C   0  0  0  0  0  0  0  0  0  0  0  0
   -5.2005    2.3456    5.0518 C   0  0  0  0  0  0  0  0  0  0  0  0
   -6.1204    1.3078    5.0149 C   0  0  0  0  0  0  0  0  0  0  0  0
   -5.7394    0.0649    4.5477 C   0  0  0  0  0  0  0  0  0  0  0  0
   -5.5741    3.5705    5.5066 O   0  0  0  0  0  0  0  0  0  0  0  0
   -6.4947   -2.4070    2.1332 N   0  0  0  0  0  0  0  0  0  0  0  0
   -7.3792   -2.7296    1.5192 N   0  3  0  0  0  0  0  0  0  0  0  0
   -8.2448   -3.0453    0.9184 N   0  5  0  0  0  0  0  0  0  0  0  0
   -3.3029   -1.2162   -1.2127 N   0  0  0  0  0  0  0  0  0  0  0  0
   -2.0183   -0.7387   -1.1934 C   0  0  0  0  0  0  0  0  0  0  0  0
   -1.5251   -0.5506   -2.3883 N   0  3  0  0  0  0  0  0  0  0  0  0
   -2.5060   -0.8981   -3.4190 C   0  0  1  0  0  0  0  0  0  0  0  0
   -2.1386   -1.6794   -4.0844 H   0  0  0  0  0  0  0  0  0  0  0  0
   -3.7379   -1.3696   -2.6122 C   0  0  2  0  0  0  0  0  0  0  0  0
   -4.0322   -2.3931   -2.8443 H   0  0  0  0  0  0  0  0  0  0  0  0
   -4.8537   -0.3485   -2.9103 C   0  0  0  0  0  0  0  0  0  0  0  0
   -4.0971    0.9279   -3.3533 C   0  0  0  0  0  0  0  0  0  0  0  0
   -2.9101    0.3733   -4.1927 C   0  0  0  0  0  0  0  0  0  0  0  0
    1.0039    1.9031    0.0027 H   0  0  0  0  0  0  0  0  0  0  0  0
   -0.5459    1.8868   -0.8726 H   0  0  0  0  0  0  0  0  0  0  0  0
   -0.5289    1.8773    0.9072 H   0  0  0  0  0  0  0  0  0  0  0  0
    0.5123   -0.3556   -0.8948 H   0  0  0  0  0  0  0  0  0  0  0  0
    0.5293   -0.3651    0.8851 H   0  0  0  0  0  0  0  0  0  0  0  0
   -4.6174   -2.2748    4.1208 H   0  0  0  0  0  0  0  0  0  0  0  0
   -2.9684   -1.6670    3.8385 H   0  0  0  0  0  0  0  0  0  0  0  0
   -2.5074    0.7169    3.8292 H   0  0  0  0  0  0  0  0  0  0  0  0
   -3.1803    2.9370    4.6519 H   0  0  0  0  0  0  0  0  0  0  0  0
   -7.1346    1.4725    5.3475 H   0  0  0  0  0  0  0  0  0  0  0  0
   -6.4563   -0.7422    4.5147 H   0  0  0  0  0  0  0  0  0  0  0  0
   -5.9131    4.1591    4.8183 H   0  0  0  0  0  0  0  0  0  0  0  0
   -5.4954   -0.7093   -3.7141 H   0  0  0  0  0  0  0  0  0  0  0  0
   -5.4399   -0.1517   -2.0127 H   0  0  0  0  0  0  0  0  0  0  0  0
   -4.7347    1.5600   -3.9714 H   0  0  0  0  0  0  0  0  0  0  0  0
   -3.7281    1.4783   -2.4878 H   0  0  0  0  0  0  0  0  0  0  0  0
   -2.0785    1.0769   -4.2310 H   0  0  0  0  0  0  0  0  0  0  0  0
   -3.2416    0.1180   -5.1992 H   0  0  0  0  0  0  0  0  0  0  0  0
   -0.6294   -0.2250   -2.5688 H   0  0  0  0  0  0  0  0  0  0  0  0
  1  2  1  0  0  0  0
  1 32  1  0  0  0  0
  1 33  1  0  0  0  0
  1 34  1  0  0  0  0
  2  3  1  0  0  0  0
  2 35  1  0  0  0  0
  2 36  1  0  0  0  0
  3 23  1  0  0  0  0
  3  4  1  0  0  0  0
  4  5  2  0  0  0  0
  4  6  1  0  0  0  0
  6 10  1  0  0  0  0
  6  7  2  0  0  0  0
  7  8  1  0  0  0  0
  7 22  1  0  0  0  0
  8  9  2  0  0  0  0
  9 10  1  0  0  0  0
  9 19  1  0  0  0  0
 10 11  1  0  0  0  0
 11 12  1  0  0  0  0
 11 37  1  0  0  0  0
 11 38  1  0  0  0  0
 12 17  2  0  0  0  0
 12 13  1  0  0  0  0
 13 14  2  0  0  0  0
 13 39  1  0  0  0  0
 14 15  1  0  0  0  0
 14 40  1  0  0  0  0
 15 16  2  0  0  0  0
 15 18  1  0  0  0  0
 16 17  1  0  0  0  0
 16 41  1  0  0  0  0
 17 42  1  0  0  0  0
 18 43  1  0  0  0  0
 19 20  2  0  0  0  0
 20 21  2  0  0  0  0
 22 27  1  0  0  0  0
 22 23  1  0  0  0  0
 23 24  2  0  0  0  0
 24 25  1  0  0  0  0
 24 50  1  0  0  0  0
 25 26  1  0  0  0  0
 25 31  1  0  0  0  0
 25 27  1  0  0  0  0
 27 28  1  0  0  0  0
 27 29  1  0  0  0  0
 29 30  1  0  0  0  0
 29 44  1  0  0  0  0
 29 45  1  0  0  0  0
 30 31  1  0  0  0  0
 30 46  1  0  0  0  0
 30 47  1  0  0  0  0
 31 48  1  0  0  0  0
 31 49  1  0  0  0  0
M  CHG  3  20   1  21  -1  24   1
M  END
$$$$
CHEMBL541847
  -OEChem-07121202283D

 37 40  0     0  0  0  0  0  0999 V2000
   -0.0164    1.3600    0.0095 C   0  0  0  0  0  0  0  0  0  0  0  0
    1.1680    2.0913    0.0021 C   0  0  0  0  0  0  0  0  0  0  0  0
    2.3793    1.4663   -0.0133 C   0  0  0  0  0  0  0  0  0  0  0  0
    2.4354    0.0652   -0.0213 C   0  0  0  0  0  0  0  0  0  0  0  0
    1.2283   -0.6769   -0.0133 C   0  0  0  0  0  0  0  0  0  0  0  0
    0.0021   -0.0041    0.0020 C   0  0  0  0  0  0  0  0  0  0  0  0
    1.3090   -2.0919   -0.0212 C   0  0  0  0  0  0  0  0  0  0  0  0
    2.5089   -2.6525   -0.0357 N   0  0  0  0  0  0  0  0  0  0  0  0
    3.6186   -1.9167   -0.0428 C   0  0  0  0  0  0  0  0  0  0  0  0
    3.6000   -0.5968   -0.0360 N   0  0  0  0  0  0  0  0  0  0  0  0
    4.9299   -2.6087   -0.0586 C   0  0  0  0  0  0  0  0  0  0  0  0
    6.1204   -1.8752   -0.0607 C   0  0  0  0  0  0  0  0  0  0  0  0
    7.3182   -2.5684   -0.0756 C   0  0  0  0  0  0  0  0  0  0  0  0
    7.2996   -3.9514   -0.0879 C   0  0  0  0  0  0  0  0  0  0  0  0
    6.1604   -4.6163   -0.0860 N   0  0  0  0  0  0  0  0  0  0  0  0
    4.9960   -4.0006   -0.0657 C   0  0  0  0  0  0  0  0  0  0  0  0
    0.1675   -2.8651   -0.0135 N   0  0  0  0  0  0  0  0  0  0  0  0
    0.2725   -4.3263   -0.0219 C   0  0  0  0  0  0  0  0  0  0  0  0
   -1.1086   -4.9292   -0.0109 C   0  0  0  0  0  0  0  0  0  0  0  0
   -1.8993   -5.2706   -1.0576 C   0  0  0  0  0  0  0  0  0  0  0  0
   -3.1446   -5.8159   -0.8072 C   0  0  0  0  0  0  0  0  0  0  0  0
   -3.5382   -5.9932    0.4777 C   0  0  0  0  0  0  0  0  0  0  0  0
   -2.1247   -5.3865    1.3840 S   0  0  0  0  0  0  0  0  0  0  0  0
   -0.9630    1.8796    0.0259 H   0  0  0  0  0  0  0  0  0  0  0  0
    1.1266    3.1705    0.0083 H   0  0  0  0  0  0  0  0  0  0  0  0
    3.2902    2.0466   -0.0196 H   0  0  0  0  0  0  0  0  0  0  0  0
   -0.9235   -0.5605    0.0082 H   0  0  0  0  0  0  0  0  0  0  0  0
    6.1056   -0.7954   -0.0512 H   0  0  0  0  0  0  0  0  0  0  0  0
    8.2574   -2.0351   -0.0781 H   0  0  0  0  0  0  0  0  0  0  0  0
    8.2325   -4.4955   -0.0996 H   0  0  0  0  0  0  0  0  0  0  0  0
    4.0844   -4.5797   -0.0597 H   0  0  0  0  0  0  0  0  0  0  0  0
   -0.7051   -2.4416   -0.0026 H   0  0  0  0  0  0  0  0  0  0  0  0
    0.8020   -4.6474   -0.9189 H   0  0  0  0  0  0  0  0  0  0  0  0
    0.8200   -4.6563    0.8610 H   0  0  0  0  0  0  0  0  0  0  0  0
   -1.5616   -5.1184   -2.0721 H   0  0  0  0  0  0  0  0  0  0  0  0
   -3.7943   -6.0961   -1.6231 H   0  0  0  0  0  0  0  0  0  0  0  0
   -4.4648   -6.3997    0.8552 H   0  0  0  0  0  0  0  0  0  0  0  0
  1  6  2  0  0  0  0
  1  2  1  0  0  0  0
  1 24  1  0  0  0  0
  2  3  2  0  0  0  0
  2 25  1  0  0  0  0
  3  4  1  0  0  0  0
  3 26  1  0  0  0  0
  4 10  2  0  0  0  0
  4  5  1  0  0  0  0
  5  6  1  0  0  0  0
  5  7  2  0  0  0  0
  6 27  1  0  0  0  0
  7  8  1  0  0  0  0
  7 17  1  0  0  0  0
  8  9  2  0  0  0  0
  9 10  1  0  0  0  0
  9 11  1  0  0  0  0
 11 16  2  0  0  0  0
 11 12  1  0  0  0  0
 12 13  2  0  0  0  0
 12 28  1  0  0  0  0
 13 14  1  0  0  0  0
 13 29  1  0  0  0  0
 14 15  2  0  0  0  0
 14 30  1  0  0  0  0
 15 16  1  0  0  0  0
 16 31  1  0  0  0  0
 17 18  1  0  0  0  0
 17 32  1  0  0  0  0
 18 19  1  0  0  0  0
 18 33  1  0  0  0  0
 18 34  1  0  0  0  0
 19 23  1  0  0  0  0
 19 20  2  0  0  0  0
 20 21  1  0  0  0  0
 20 35  1  0  0  0  0
 21 22  2  0  0  0  0
 21 36  1  0  0  0  0
 22 23  1  0  0  0  0
 22 37  1  0  0  0  0
M  END
$$$$
CHEMBL560408
  -OEChem-07121202283D

 69 73  0     0  0  0  0  0  0999 V2000
   -0.0173    1.4248    0.0099 C   0  0  0  0  0  0  0  0  0  0  0  0
    0.0021   -0.0041    0.0020 O   0  0  0  0  0  0  0  0  0  0  0  0
    0.6045   -0.6058   -1.0535 C   0  0  0  0  0  0  0  0  0  0  0  0
    0.6486   -1.9943   -1.1177 C   0  0  0  0  0  0  0  0  0  0  0  0
    1.2632   -2.6007   -2.1953 C   0  0  0  0  0  0  0  0  0  0  0  0
    1.8216   -1.7858   -3.1881 C   0  0  0  0  0  0  0  0  0  0  0  0
    1.7374   -0.4018   -3.0532 C   0  0  0  0  0  0  0  0  0  0  0  0
    1.1374    0.1363   -2.0107 N   0  0  0  0  0  0  0  0  0  0  0  0
    2.4925   -2.3868   -4.3642 C   0  0  0  0  0  0  0  0  0  0  0  0
    3.0474   -1.5527   -5.3393 C   0  0  0  0  0  0  0  0  0  0  0  0
    3.6673   -2.1046   -6.4260 C   0  0  0  0  0  0  0  0  0  0  0  0
    3.7253   -3.5058   -6.5254 C   0  0  0  0  0  0  0  0  0  0  0  0
    3.1463   -4.2878   -5.5082 C   0  0  0  0  0  0  0  0  0  0  0  0
    2.5611   -3.7061   -4.4714 N   0  0  0  0  0  0  0  0  0  0  0  0
    3.1937   -5.6651   -5.5888 N   0  0  0  0  0  0  0  0  0  0  0  0
    3.7986   -6.2421   -6.6492 C   0  0  0  0  0  0  0  0  0  0  0  0
    3.8527   -7.4545   -6.7428 O   0  0  0  0  0  0  0  0  0  0  0  0
    4.3922   -5.3861   -7.6924 C   0  0  0  0  0  0  0  0  0  0  0  0
    4.3288   -4.0827   -7.5825 N   0  0  0  0  0  0  0  0  0  0  0  0
    5.0169   -5.9594   -8.7863 N   0  0  0  0  0  0  0  0  0  0  0  0
    5.6066   -5.1082   -9.8225 C   0  0  0  0  0  0  0  0  0  0  0  0
    6.2284   -5.9858  -10.9107 C   0  0  0  0  0  0  0  0  0  0  0  0
    6.8197   -5.1321  -11.9497 N   0  0  0  0  0  0  0  0  0  0  0  0
    5.7806   -4.3797  -12.6678 C   0  0  0  0  0  0  0  0  0  0  0  0
    6.4432   -3.4612  -13.6979 C   0  0  0  0  0  0  0  0  0  0  0  0
    7.2503   -4.2461  -14.5798 O   0  0  0  0  0  0  0  0  0  0  0  0
    8.2731   -4.9916  -13.9139 C   0  0  0  0  0  0  0  0  0  0  0  0
    7.6291   -5.9257  -12.8859 C   0  0  0  0  0  0  0  0  0  0  0  0
    2.5954   -6.4905   -4.5367 C   0  0  0  0  0  0  0  0  0  0  0  0
    1.1336   -6.7791   -4.8842 C   0  0  0  0  0  0  0  0  0  0  0  0
    0.3391   -5.4716   -4.8738 C   0  0  0  0  0  0  0  0  0  0  0  0
   -1.1226   -5.7602   -5.2213 C   0  0  0  0  0  0  0  0  0  0  0  0
   -1.7118   -6.7232   -4.1886 C   0  0  0  0  0  0  0  0  0  0  0  0
   -0.9174   -8.0308   -4.1990 C   0  0  0  0  0  0  0  0  0  0  0  0
    0.5444   -7.7421   -3.8515 C   0  0  0  0  0  0  0  0  0  0  0  0
    1.0053    1.8021    0.0021 H   0  0  0  0  0  0  0  0  0  0  0  0
   -0.5445    1.7859   -0.8732 H   0  0  0  0  0  0  0  0  0  0  0  0
   -0.5275    1.7763    0.9067 H   0  0  0  0  0  0  0  0  0  0  0  0
    0.2076   -2.5916   -0.3333 H   0  0  0  0  0  0  0  0  0  0  0  0
    1.3123   -3.6769   -2.2706 H   0  0  0  0  0  0  0  0  0  0  0  0
    2.1648    0.2364   -3.8124 H   0  0  0  0  0  0  0  0  0  0  0  0
    2.9866   -0.4794   -5.2352 H   0  0  0  0  0  0  0  0  0  0  0  0
    4.1021   -1.4783   -7.1908 H   0  0  0  0  0  0  0  0  0  0  0  0
    5.0642   -6.9249   -8.8669 H   0  0  0  0  0  0  0  0  0  0  0  0
    4.8314   -4.4800  -10.2613 H   0  0  0  0  0  0  0  0  0  0  0  0
    6.3776   -4.4777   -9.3795 H   0  0  0  0  0  0  0  0  0  0  0  0
    7.0036   -6.6140  -10.4719 H   0  0  0  0  0  0  0  0  0  0  0  0
    5.4574   -6.6162  -11.3537 H   0  0  0  0  0  0  0  0  0  0  0  0
    5.1134   -5.0755  -13.1765 H   0  0  0  0  0  0  0  0  0  0  0  0
    5.2102   -3.7798  -11.9588 H   0  0  0  0  0  0  0  0  0  0  0  0
    5.6745   -2.9437  -14.2718 H   0  0  0  0  0  0  0  0  0  0  0  0
    7.0690   -2.7308  -13.1850 H   0  0  0  0  0  0  0  0  0  0  0  0
    8.8278   -5.5810  -14.6440 H   0  0  0  0  0  0  0  0  0  0  0  0
    8.9521   -4.3058  -13.4073 H   0  0  0  0  0  0  0  0  0  0  0  0
    8.4079   -6.4543  -12.3362 H   0  0  0  0  0  0  0  0  0  0  0  0
    6.9913   -6.6462  -13.3981 H   0  0  0  0  0  0  0  0  0  0  0  0
    3.1422   -7.4300   -4.4569 H   0  0  0  0  0  0  0  0  0  0  0  0
    2.6448   -5.9595   -3.5861 H   0  0  0  0  0  0  0  0  0  0  0  0
    1.0779   -7.2302   -5.8749 H   0  0  0  0  0  0  0  0  0  0  0  0
    0.3948   -5.0205   -3.8830 H   0  0  0  0  0  0  0  0  0  0  0  0
    0.7589   -4.7856   -5.6095 H   0  0  0  0  0  0  0  0  0  0  0  0
   -1.6886   -4.8287   -5.2139 H   0  0  0  0  0  0  0  0  0  0  0  0
   -1.1783   -6.2113   -6.2120 H   0  0  0  0  0  0  0  0  0  0  0  0
   -1.6561   -6.2721   -3.1979 H   0  0  0  0  0  0  0  0  0  0  0  0
   -2.7532   -6.9288   -4.4362 H   0  0  0  0  0  0  0  0  0  0  0  0
   -1.3371   -8.7168   -3.4633 H   0  0  0  0  0  0  0  0  0  0  0  0
   -0.9730   -8.4818   -5.1897 H   0  0  0  0  0  0  0  0  0  0  0  0
    1.1104   -8.6736   -3.8589 H   0  0  0  0  0  0  0  0  0  0  0  0
    0.6001   -7.2910   -2.8608 H   0  0  0  0  0  0  0  0  0  0  0  0
  1  2  1  0  0  0  0
  1 36  1  0  0  0  0
  1 37  1  0  0  0  0
  1 38  1  0  0  0  0
  2  3  1  0  0  0  0
  3  8  2  0  0  0  0
  3  4  1  0  0  0  0
  4  5  2  0  0  0  0
  4 39  1  0  0  0  0
  5  6  1  0  0  0  0
  5 40  1  0  0  0  0
  6  7  2  0  0  0  0
  6  9  1  0  0  0  0
  7  8  1  0  0  0  0
  7 41  1  0  0  0  0
  9 14  2  0  0  0  0
  9 10  1  0  0  0  0
 10 11  2  0  0  0  0
 10 42  1  0  0  0  0
 11 12  1  0  0  0  0
 11 43  1  0  0  0  0
 12 19  1  0  0  0  0
 12 13  2  0  0  0  0
 13 14  1  0  0  0  0
 13 15  1  0  0  0  0
 15 16  1  0  0  0  0
 15 29  1  0  0  0  0
 16 17  2  0  0  0  0
 16 18  1  0  0  0  0
 18 19  2  0  0  0  0
 18 20  1  0  0  0  0
 20 21  1  0  0  0  0
 20 44  1  0  0  0  0
 21 22  1  0  0  0  0
 21 45  1  0  0  0  0
 21 46  1  0  0  0  0
 22 23  1  0  0  0  0
 22 47  1  0  0  0  0
 22 48  1  0  0  0  0
 23 28  1  0  0  0  0
 23 24  1  0  0  0  0
 24 25  1  0  0  0  0
 24 49  1  0  0  0  0
 24 50  1  0  0  0  0
 25 26  1  0  0  0  0
 25 51  1  0  0  0  0
 25 52  1  0  0  0  0
 26 27  1  0  0  0  0
 27 28  1  0  0  0  0
 27 53  1  0  0  0  0
 27 54  1  0  0  0  0
 28 55  1  0  0  0  0
 28 56  1  0  0  0  0
 29 30  1  0  0  0  0
 29 57  1  0  0  0  0
 29 58  1  0  0  0  0
 30 35  1  0  0  0  0
 30 31  1  0  0  0  0
 30 59  1  0  0  0  0
 31 32  1  0  0  0  0
 31 60  1  0  0  0  0
 31 61  1  0  0  0  0
 32 33  1  0  0  0  0
 32 62  1  0  0  0  0
 32 63  1  0  0  0  0
 33 34  1  0  0  0  0
 33 64  1  0  0  0  0
 33 65  1  0  0  0  0
 34 35  1  0  0  0  0
 34 66  1  0  0  0  0
 34 67  1  0  0  0  0
 35 68  1  0  0  0  0
 35 69  1  0  0  0  0
M  END
$$$$
CHEMBL560408
  -OEChem-07121202283D

 70 74  0     0  0  0  0  0  0999 V2000
   -0.0173    1.4248    0.0099 C   0  0  0  0  0  0  0  0  0  0  0  0
    0.0021   -0.0041    0.0020 O   0  0  0  0  0  0  0  0  0  0  0  0
    0.6045   -0.6058   -1.0535 C   0  0  0  0  0  0  0  0  0  0  0  0
    0.6486   -1.9943   -1.1177 C   0  0  0  0  0  0  0  0  0  0  0  0
    1.2632   -2.6007   -2.1953 C   0  0  0  0  0  0  0  0  0  0  0  0
    1.8216   -1.7858   -3.1881 C   0  0  0  0  0  0  0  0  0  0  0  0
    1.7374   -0.4018   -3.0532 C   0  0  0  0  0  0  0  0  0  0  0  0
    1.1374    0.1363   -2.0107 N   0  0  0  0  0  0  0  0  0  0  0  0
    2.4925   -2.3868   -4.3642 C   0  0  0  0  0  0  0  0  0  0  0  0
    3.0474   -1.5527   -5.3393 C   0  0  0  0  0  0  0  0  0  0  0  0
    3.6673   -2.1046   -6.4260 C   0  0  0  0  0  0  0  0  0  0  0  0
    3.7253   -3.5058   -6.5254 C   0  0  0  0  0  0  0  0  0  0  0  0
    3.1463   -4.2878   -5.5082 C   0  0  0  0  0  0  0  0  0  0  0  0
    2.5611   -3.7061   -4.4714 N   0  0  0  0  0  0  0  0  0  0  0  0
    3.1937   -5.6651   -5.5888 N   0  0  0  0  0  0  0  0  0  0  0  0
    3.7986   -6.2421   -6.6492 C   0  0  0  0  0  0  0  0  0  0  0  0
    3.8527   -7.4545   -6.7428 O   0  0  0  0  0  0  0  0  0  0  0  0
    4.3922   -5.3861   -7.6924 C   0  0  0  0  0  0  0  0  0  0  0  0
    4.3288   -4.0827   -7.5825 N   0  0  0  0  0  0  0  0  0  0  0  0
    5.0169   -5.9594   -8.7863 N   0  0  0  0  0  0  0  0  0  0  0  0
    5.6066   -5.1082   -9.8225 C   0  0  0  0  0  0  0  0  0  0  0  0
    6.2284   -5.9858  -10.9107 C   0  0  0  0  0  0  0  0  0  0  0  0
    6.8197   -5.1321  -11.9497 N   0  3  0  0  0  0  0  0  0  0  0  0
    5.7571   -4.3733  -12.6238 C   0  0  0  0  0  0  0  0  0  0  0  0
    6.3758   -3.4846  -13.7057 C   0  0  0  0  0  0  0  0  0  0  0  0
    7.1038   -4.3011  -14.6272 O   0  0  0  0  0  0  0  0  0  0  0  0
    8.1356   -5.0787  -14.0138 C   0  0  0  0  0  0  0  0  0  0  0  0
    7.5203   -5.9704  -12.9324 C   0  0  0  0  0  0  0  0  0  0  0  0
    2.5954   -6.4905   -4.5367 C   0  0  0  0  0  0  0  0  0  0  0  0
    1.1336   -6.7791   -4.8842 C   0  0  0  0  0  0  0  0  0  0  0  0
    0.3391   -5.4716   -4.8738 C   0  0  0  0  0  0  0  0  0  0  0  0
   -1.1226   -5.7602   -5.2213 C   0  0  0  0  0  0  0  0  0  0  0  0
   -1.7118   -6.7232   -4.1886 C   0  0  0  0  0  0  0  0  0  0  0  0
   -0.9174   -8.0308   -4.1990 C   0  0  0  0  0  0  0  0  0  0  0  0
    0.5444   -7.7421   -3.8515 C   0  0  0  0  0  0  0  0  0  0  0  0
    1.0053    1.8021    0.0021 H   0  0  0  0  0  0  0  0  0  0  0  0
   -0.5445    1.7859   -0.8732 H   0  0  0  0  0  0  0  0  0  0  0  0
   -0.5275    1.7763    0.9067 H   0  0  0  0  0  0  0  0  0  0  0  0
    0.2076   -2.5916   -0.3333 H   0  0  0  0  0  0  0  0  0  0  0  0
    1.3123   -3.6769   -2.2706 H   0  0  0  0  0  0  0  0  0  0  0  0
    2.1648    0.2364   -3.8124 H   0  0  0  0  0  0  0  0  0  0  0  0
    2.9866   -0.4794   -5.2352 H   0  0  0  0  0  0  0  0  0  0  0  0
    4.1021   -1.4783   -7.1908 H   0  0  0  0  0  0  0  0  0  0  0  0
    5.0642   -6.9249   -8.8669 H   0  0  0  0  0  0  0  0  0  0  0  0
    4.8314   -4.4800  -10.2613 H   0  0  0  0  0  0  0  0  0  0  0  0
    6.3776   -4.4777   -9.3795 H   0  0  0  0  0  0  0  0  0  0  0  0
    7.0036   -6.6140  -10.4719 H   0  0  0  0  0  0  0  0  0  0  0  0
    5.4574   -6.6162  -11.3537 H   0  0  0  0  0  0  0  0  0  0  0  0
    5.0506   -5.0655  -13.0818 H   0  0  0  0  0  0  0  0  0  0  0  0
    5.2368   -3.7510  -11.8956 H   0  0  0  0  0  0  0  0  0  0  0  0
    5.5856   -2.9530  -14.2359 H   0  0  0  0  0  0  0  0  0  0  0  0
    7.0522   -2.7657  -13.2433 H   0  0  0  0  0  0  0  0  0  0  0  0
    8.6191   -5.7009  -14.7670 H   0  0  0  0  0  0  0  0  0  0  0  0
    8.8723   -4.4143  -13.5620 H   0  0  0  0  0  0  0  0  0  0  0  0
    8.3088   -6.5337  -12.4335 H   0  0  0  0  0  0  0  0  0  0  0  0
    6.8131   -6.6619  -13.3904 H   0  0  0  0  0  0  0  0  0  0  0  0
    3.1422   -7.4300   -4.4569 H   0  0  0  0  0  0  0  0  0  0  0  0
    2.6448   -5.9595   -3.5861 H   0  0  0  0  0  0  0  0  0  0  0  0
    1.0779   -7.2302   -5.8749 H   0  0  0  0  0  0  0  0  0  0  0  0
    0.3948   -5.0205   -3.8830 H   0  0  0  0  0  0  0  0  0  0  0  0
    0.7589   -4.7856   -5.6095 H   0  0  0  0  0  0  0  0  0  0  0  0
   -1.6886   -4.8287   -5.2139 H   0  0  0  0  0  0  0  0  0  0  0  0
   -1.1783   -6.2113   -6.2120 H   0  0  0  0  0  0  0  0  0  0  0  0
   -1.6561   -6.2721   -3.1979 H   0  0  0  0  0  0  0  0  0  0  0  0
   -2.7532   -6.9288   -4.4362 H   0  0  0  0  0  0  0  0  0  0  0  0
   -1.3371   -8.7168   -3.4633 H   0  0  0  0  0  0  0  0  0  0  0  0
   -0.9730   -8.4818   -5.1897 H   0  0  0  0  0  0  0  0  0  0  0  0
    1.1104   -8.6736   -3.8589 H   0  0  0  0  0  0  0  0  0  0  0  0
    0.6001   -7.2910   -2.8608 H   0  0  0  0  0  0  0  0  0  0  0  0
    7.4743   -4.4914  -11.5265 H   0  0  0  0  0  0  0  0  0  0  0  0
  1  2  1  0  0  0  0
  1 36  1  0  0  0  0
  1 37  1  0  0  0  0
  1 38  1  0  0  0  0
  2  3  1  0  0  0  0
  3  8  2  0  0  0  0
  3  4  1  0  0  0  0
  4  5  2  0  0  0  0
  4 39  1  0  0  0  0
  5  6  1  0  0  0  0
  5 40  1  0  0  0  0
  6  7  2  0  0  0  0
  6  9  1  0  0  0  0
  7  8  1  0  0  0  0
  7 41  1  0  0  0  0
  9 14  2  0  0  0  0
  9 10  1  0  0  0  0
 10 11  2  0  0  0  0
 10 42  1  0  0  0  0
 11 12  1  0  0  0  0
 11 43  1  0  0  0  0
 12 19  1  0  0  0  0
 12 13  2  0  0  0  0
 13 14  1  0  0  0  0
 13 15  1  0  0  0  0
 15 16  1  0  0  0  0
 15 29  1  0  0  0  0
 16 17  2  0  0  0  0
 16 18  1  0  0  0  0
 18 19  2  0  0  0  0
 18 20  1  0  0  0  0
 20 21  1  0  0  0  0
 20 44  1  0  0  0  0
 21 22  1  0  0  0  0
 21 45  1  0  0  0  0
 21 46  1  0  0  0  0
 22 23  1  0  0  0  0
 22 47  1  0  0  0  0
 22 48  1  0  0  0  0
 23 28  1  0  0  0  0
 23 24  1  0  0  0  0
 23 70  1  0  0  0  0
 24 25  1  0  0  0  0
 24 49  1  0  0  0  0
 24 50  1  0  0  0  0
 25 26  1  0  0  0  0
 25 51  1  0  0  0  0
 25 52  1  0  0  0  0
 26 27  1  0  0  0  0
 27 28  1  0  0  0  0
 27 53  1  0  0  0  0
 27 54  1  0  0  0  0
 28 55  1  0  0  0  0
 28 56  1  0  0  0  0
 29 30  1  0  0  0  0
 29 57  1  0  0  0  0
 29 58  1  0  0  0  0
 30 35  1  0  0  0  0
 30 31  1  0  0  0  0
 30 59  1  0  0  0  0
 31 32  1  0  0  0  0
 31 60  1  0  0  0  0
 31 61  1  0  0  0  0
 32 33  1  0  0  0  0
 32 62  1  0  0  0  0
 32 63  1  0  0  0  0
 33 34  1  0  0  0  0
 33 64  1  0  0  0  0
 33 65  1  0  0  0  0
 34 35  1  0  0  0  0
 34 66  1  0  0  0  0
 34 67  1  0  0  0  0
 35 68  1  0  0  0  0
 35 69  1  0  0  0  0
M  CHG  1  23   1
M  END
$$$$
CHEMBL321764
  -OEChem-07121202283D

 61 65  0     0  0  0  0  0  0999 V2000
   -0.0187    1.5258    0.0104 C   0  0  0  0  0  0  0  0  0  0  0  0
    0.0021   -0.0041    0.0020 C   0  0  0  0  0  0  0  0  0  0  0  0
    0.6878   -0.4765   -1.2033 N   0  0  0  0  0  0  0  0  0  0  0  0
   -0.0324   -0.7052   -2.3648 C   0  0  0  0  0  0  0  0  0  0  0  0
    0.6432   -1.1530   -3.4948 C   0  0  0  0  0  0  0  0  0  0  0  0
    2.0323   -1.3599   -3.4273 C   0  0  0  0  0  0  0  0  0  0  0  0
    2.6449   -1.7516   -4.4053 O   0  0  0  0  0  0  0  0  0  0  0  0
    2.6800   -1.1197   -2.2684 N   0  0  0  0  0  0  0  0  0  0  0  0
    2.0181   -0.6828   -1.1831 C   0  0  0  0  0  0  0  0  0  0  0  0
    2.6354   -0.4727   -0.1567 O   0  0  0  0  0  0  0  0  0  0  0  0
    4.1273   -1.3337   -2.1931 C   0  0  0  0  0  0  0  0  0  0  0  0
    4.8543   -0.0427   -2.5747 C   0  0  0  0  0  0  0  0  0  0  0  0
   -0.3131   -1.2944   -4.4916 N   0  0  0  0  0  0  0  0  0  0  0  0
   -1.5047   -0.9363   -3.9444 C   0  0  0  0  0  0  0  0  0  0  0  0
   -1.3221   -0.5904   -2.6861 N   0  0  0  0  0  0  0  0  0  0  0  0
   -2.7133   -0.9347   -4.6020 N   0  0  0  0  0  0  0  0  0  0  0  0
   -3.9304   -0.5254   -3.8969 C   0  0  0  0  0  0  0  0  0  0  0  0
   -4.5095   -1.7232   -3.1414 C   0  0  0  0  0  0  0  0  0  0  0  0
   -5.7806   -1.2956   -2.4049 C   0  0  0  0  0  0  0  0  0  0  0  0
   -6.8088   -0.7852   -3.4164 C   0  0  0  0  0  0  0  0  0  0  0  0
   -6.2297    0.4126   -4.1720 C   0  0  0  0  0  0  0  0  0  0  0  0
   -4.9586   -0.0149   -4.9084 C   0  0  0  0  0  0  0  0  0  0  0  0
   -0.0823   -1.7424   -5.8672 C   0  0  0  0  0  0  0  0  0  0  0  0
   -0.2225   -3.2412   -5.9376 C   0  0  0  0  0  0  0  0  0  0  0  0
    0.8807   -4.0478   -5.7288 C   0  0  0  0  0  0  0  0  0  0  0  0
    0.7570   -5.4232   -5.7919 C   0  0  0  0  0  0  0  0  0  0  0  0
   -0.4742   -5.9968   -6.0651 C   0  0  0  0  0  0  0  0  0  0  0  0
   -1.5855   -5.1843   -6.2754 C   0  0  0  0  0  0  0  0  0  0  0  0
   -1.4553   -3.8067   -6.2050 C   0  0  0  0  0  0  0  0  0  0  0  0
   -2.6668   -5.9797   -6.5235 O   0  0  0  0  0  0  0  0  0  0  0  0
   -2.1250   -7.2689   -6.8666 C   0  0  0  0  0  0  0  0  0  0  0  0
   -0.8591   -7.3012   -6.1813 O   0  0  0  0  0  0  0  0  0  0  0  0
    1.0039    1.9031    0.0027 H   0  0  0  0  0  0  0  0  0  0  0  0
   -0.5459    1.8868   -0.8726 H   0  0  0  0  0  0  0  0  0  0  0  0
   -0.5289    1.8773    0.9072 H   0  0  0  0  0  0  0  0  0  0  0  0
    0.5293   -0.3651    0.8851 H   0  0  0  0  0  0  0  0  0  0  0  0
   -1.0205   -0.3814    0.0098 H   0  0  0  0  0  0  0  0  0  0  0  0
    4.4003   -1.6176   -1.1768 H   0  0  0  0  0  0  0  0  0  0  0  0
    4.4134   -2.1288   -2.8817 H   0  0  0  0  0  0  0  0  0  0  0  0
    5.9312   -0.2019   -2.5187 H   0  0  0  0  0  0  0  0  0  0  0  0
    4.5814    0.2412   -3.5911 H   0  0  0  0  0  0  0  0  0  0  0  0
    4.5683    0.7525   -1.8861 H   0  0  0  0  0  0  0  0  0  0  0  0
   -2.7594   -1.2047   -5.5326 H   0  0  0  0  0  0  0  0  0  0  0  0
   -3.6910    0.2689   -3.1899 H   0  0  0  0  0  0  0  0  0  0  0  0
   -4.7489   -2.5175   -3.8484 H   0  0  0  0  0  0  0  0  0  0  0  0
   -3.7770   -2.0868   -2.4207 H   0  0  0  0  0  0  0  0  0  0  0  0
   -6.1931   -2.1490   -1.8667 H   0  0  0  0  0  0  0  0  0  0  0  0
   -5.5411   -0.5013   -1.6979 H   0  0  0  0  0  0  0  0  0  0  0  0
   -7.0482   -1.5795   -4.1235 H   0  0  0  0  0  0  0  0  0  0  0  0
   -7.7144   -0.4806   -2.8918 H   0  0  0  0  0  0  0  0  0  0  0  0
   -6.9623    0.7763   -4.8926 H   0  0  0  0  0  0  0  0  0  0  0  0
   -5.9903    1.2069   -3.4650 H   0  0  0  0  0  0  0  0  0  0  0  0
   -4.5461    0.8384   -5.4467 H   0  0  0  0  0  0  0  0  0  0  0  0
   -5.1981   -0.8092   -5.6154 H   0  0  0  0  0  0  0  0  0  0  0  0
   -0.8137   -1.2776   -6.5282 H   0  0  0  0  0  0  0  0  0  0  0  0
    0.9224   -1.4565   -6.1787 H   0  0  0  0  0  0  0  0  0  0  0  0
    1.8414   -3.6024   -5.5164 H   0  0  0  0  0  0  0  0  0  0  0  0
    1.6205   -6.0509   -5.6284 H   0  0  0  0  0  0  0  0  0  0  0  0
   -2.3163   -3.1743   -6.3633 H   0  0  0  0  0  0  0  0  0  0  0  0
   -2.7758   -8.0658   -6.5069 H   0  0  0  0  0  0  0  0  0  0  0  0
   -1.9795   -7.3487   -7.9439 H   0  0  0  0  0  0  0  0  0  0  0  0
  1  2  1  0  0  0  0
  1 33  1  0  0  0  0
  1 34  1  0  0  0  0
  1 35  1  0  0  0  0
  2  3  1  0  0  0  0
  2 36  1  0  0  0  0
  2 37  1  0  0  0  0
  3  9  1  0  0  0  0
  3  4  1  0  0  0  0
  4 15  1  0  0  0  0
  4  5  2  0  0  0  0
  5  6  1  0  0  0  0
  5 13  1  0  0  0  0
  6  7  2  0  0  0  0
  6  8  1  0  0  0  0
  8  9  1  0  0  0  0
  8 11  1  0  0  0  0
  9 10  2  0  0  0  0
 11 12  1  0  0  0  0
 11 38  1  0  0  0  0
 11 39  1  0  0  0  0
 12 40  1  0  0  0  0
 12 41  1  0  0  0  0
 12 42  1  0  0  0  0
 13 14  1  0  0  0  0
 13 23  1  0  0  0  0
 14 15  2  0  0  0  0
 14 16  1  0  0  0  0
 16 17  1  0  0  0  0
 16 43  1  0  0  0  0
 17 22  1  0  0  0  0
 17 18  1  0  0  0  0
 17 44  1  0  0  0  0
 18 19  1  0  0  0  0
 18 45  1  0  0  0  0
 18 46  1  0  0  0  0
 19 20  1  0  0  0  0
 19 47  1  0  0  0  0
 19 48  1  0  0  0  0
 20 21  1  0  0  0  0
 20 49  1  0  0  0  0
 20 50  1  0  0  0  0
 21 22  1  0  0  0  0
 21 51  1  0  0  0  0
 21 52  1  0  0  0  0
 22 53  1  0  0  0  0
 22 54  1  0  0  0  0
 23 24  1  0  0  0  0
 23 55  1  0  0  0  0
 23 56  1  0  0  0  0
 24 29  2  0  0  0  0
 24 25  1  0  0  0  0
 25 26  2  0  0  0  0
 25 57  1  0  0  0  0
 26 27  1  0  0  0  0
 26 58  1  0  0  0  0
 27 32  1  0  0  0  0
 27 28  2  0  0  0  0
 28 29  1  0  0  0  0
 28 30  1  0  0  0  0
 29 59  1  0  0  0  0
 30 31  1  0  0  0  0
 31 32  1  0  0  0  0
 31 60  1  0  0  0  0
 31 61  1  0  0  0  0
M  END
$$$$
CHEMBL365694
  -OEChem-07121202283D

 40 42  0     0  0  0  0  0  0999 V2000
    0.4432    0.6540    1.1226 C   0  0  0  0  0  0  0  0  0  0  0  0
    1.6283    1.3633    1.0938 C   0  0  0  0  0  0  0  0  0  0  0  0
    2.3737    1.4197   -0.0706 C   0  0  0  0  0  0  0  0  0  0  0  0
    1.9338    0.7664   -1.2083 C   0  0  0  0  0  0  0  0  0  0  0  0
    0.7491    0.0564   -1.1837 C   0  0  0  0  0  0  0  0  0  0  0  0
    0.0006   -0.0021   -0.0169 C   0  0  0  0  0  0  0  0  0  0  0  0
   -1.1650   -0.7005    0.0094 O   0  0  0  0  0  0  0  0  0  0  0  0
   -1.1011   -2.0493   -0.1027 C   0  0  0  0  0  0  0  0  0  0  0  0
    0.1248   -2.7094   -0.1122 C   0  0  0  0  0  0  0  0  0  0  0  0
    0.1490   -4.0834   -0.2281 C   0  0  0  0  0  0  0  0  0  0  0  0
   -0.9682   -4.7813   -0.3298 N   0  0  0  0  0  0  0  0  0  0  0  0
   -2.1532   -4.2081   -0.3261 C   0  0  0  0  0  0  0  0  0  0  0  0
   -2.2720   -2.8226   -0.2070 C   0  0  0  0  0  0  0  0  0  0  0  0
   -3.5999   -2.1806   -0.1965 C   0  0  0  0  0  0  0  0  0  0  0  0
   -3.6901   -0.9720   -0.0971 O   0  0  0  0  0  0  0  0  0  0  0  0
   -4.7132   -2.9334   -0.2971 N   0  0  0  0  0  0  0  0  0  0  0  0
   -5.9637   -2.3288   -0.2872 C   0  0  0  0  0  0  0  0  0  0  0  0
   -7.1474   -2.8973   -0.3691 N   0  0  0  0  0  0  0  0  0  0  0  0
   -8.2534   -2.1768   -0.3448 C   0  0  0  0  0  0  0  0  0  0  0  0
   -8.1112   -0.8333   -0.2323 C   0  0  0  0  0  0  0  0  0  0  0  0
   -6.3328   -0.6917   -0.1601 S   0  0  0  0  0  0  0  0  0  0  0  0
   -9.6134   -2.8192   -0.4386 C   0  0  0  0  0  0  0  0  0  0  0  0
   -9.6807   -3.6743   -1.6777 C   0  0  0  0  0  0  0  0  0  0  0  0
   -8.7190   -3.7542   -2.4123 O   0  0  0  0  0  0  0  0  0  0  0  0
  -10.8096   -4.3502   -1.9694 N   0  0  0  0  0  0  0  0  0  0  0  0
  -10.8729   -5.1537   -3.1337 O   0  0  0  0  0  0  0  0  0  0  0  0
    3.8626    2.3117   -0.1043 Cl  0  0  0  0  0  0  0  0  0  0  0  0
   -0.1361    0.6065    2.0329 H   0  0  0  0  0  0  0  0  0  0  0  0
    1.9730    1.8744    1.9805 H   0  0  0  0  0  0  0  0  0  0  0  0
    2.5169    0.8119   -2.1162 H   0  0  0  0  0  0  0  0  0  0  0  0
    0.4057   -0.4528   -2.0721 H   0  0  0  0  0  0  0  0  0  0  0  0
    1.0461   -2.1519   -0.0302 H   0  0  0  0  0  0  0  0  0  0  0  0
    1.0984   -4.5981   -0.2361 H   0  0  0  0  0  0  0  0  0  0  0  0
   -3.0419   -4.8159   -0.4115 H   0  0  0  0  0  0  0  0  0  0  0  0
   -4.6413   -3.8975   -0.3764 H   0  0  0  0  0  0  0  0  0  0  0  0
   -8.8658   -0.0616   -0.1936 H   0  0  0  0  0  0  0  0  0  0  0  0
   -9.7833   -3.4401    0.4410 H   0  0  0  0  0  0  0  0  0  0  0  0
  -10.3784   -2.0444   -0.4898 H   0  0  0  0  0  0  0  0  0  0  0  0
  -11.5787   -4.2863   -1.3819 H   0  0  0  0  0  0  0  0  0  0  0  0
  -11.7221   -5.5990   -3.2586 H   0  0  0  0  0  0  0  0  0  0  0  0
  1  6  2  0  0  0  0
  1  2  1  0  0  0  0
  1 28  1  0  0  0  0
  2  3  2  0  0  0  0
  2 29  1  0  0  0  0
  3  4  1  0  0  0  0
  3 27  1  0  0  0  0
  4  5  2  0  0  0  0
  4 30  1  0  0  0  0
  5  6  1  0  0  0  0
  5 31  1  0  0  0  0
  6  7  1  0  0  0  0
  7  8  1  0  0  0  0
  8 13  2  0  0  0  0
  8  9  1  0  0  0  0
  9 10  2  0  0  0  0
  9 32  1  0  0  0  0
 10 11  1  0  0  0  0
 10 33  1  0  0  0  0
 11 12  2  0  0  0  0
 12 13  1  0  0  0  0
 12 34  1  0  0  0  0
 13 14  1  0  0  0  0
 14 15  2  0  0  0  0
 14 16  1  0  0  0  0
 16 17  1  0  0  0  0
 16 35  1  0  0  0  0
 17 21  1  0  0  0  0
 17 18  2  0  0  0  0
 18 19  1  0  0  0  0
 19 20  2  0  0  0  0
 19 22  1  0  0  0  0
 20 21  1  0  0  0  0
 20 36  1  0  0  0  0
 22 23  1  0  0  0  0
 22 37  1  0  0  0  0
 22 38  1  0  0  0  0
 23 24  2  0  0  0  0
 23 25  1  0  0  0  0
 25 26  1  0  0  0  0
 25 39  1  0  0  0  0
 26 40  1  0  0  0  0
M  END
$$$$
CHEMBL344366
  -OEChem-07121202283D

 49 54  0     1  0  0  0  0  0999 V2000
   -0.0158    1.3805    0.0253 C   0  0  0  0  0  0  0  0  0  0  0  0
    1.1696    2.0931    0.0631 C   0  0  0  0  0  0  0  0  0  0  0  0
    2.3784    1.4284    0.0432 C   0  0  0  0  0  0  0  0  0  0  0  0
    2.4037    0.0341   -0.0151 C   0  0  0  0  0  0  0  0  0  0  0  0
    1.2042   -0.6786   -0.0530 C   0  0  0  0  0  0  0  0  0  0  0  0
    0.0023   -0.0017   -0.0326 C   0  0  0  0  0  0  0  0  0  0  0  0
    3.6955   -0.6847   -0.0372 C   0  0  0  0  0  0  0  0  0  0  0  0
    4.7351   -0.0633   -0.1405 O   0  0  0  0  0  0  0  0  0  0  0  0
    3.7204   -2.0289    0.0571 N   0  0  0  0  0  0  0  0  0  0  0  0
    2.5643   -2.9312    0.0728 C   0  0  0  0  0  0  0  0  0  0  0  0
    3.0906   -4.3401    0.1910 C   0  0  0  0  0  0  0  0  0  0  0  0
    2.3942   -5.5728    0.2474 C   0  0  0  0  0  0  0  0  0  0  0  0
    3.1843   -6.8093    0.3638 C   0  0  0  0  0  0  0  0  0  0  0  0
    2.5763   -8.0629    0.4246 C   0  0  0  0  0  0  0  0  0  0  0  0
    3.3493   -9.1853    0.5321 C   0  0  0  0  0  0  0  0  0  0  0  0
    4.7331   -9.0861    0.5811 C   0  0  0  0  0  0  0  0  0  0  0  0
    5.3531   -7.8574    0.5229 C   0  0  0  0  0  0  0  0  0  0  0  0
    4.5851   -6.7013    0.4128 C   0  0  0  0  0  0  0  0  0  0  0  0
    5.1705   -5.4595    0.3514 N   0  0  0  0  0  0  0  0  0  0  0  0
    4.4380   -4.3162    0.2435 C   0  0  0  0  0  0  0  0  0  0  0  0
    4.9087   -2.8815    0.1581 C   0  0  2  0  0  0  0  0  0  0  0  0
    5.6878   -2.5273    1.3985 C   0  0  0  0  0  0  0  0  0  0  0  0
    5.0188   -2.2134    2.5670 C   0  0  0  0  0  0  0  0  0  0  0  0
    5.7290   -1.8883    3.7075 C   0  0  0  0  0  0  0  0  0  0  0  0
    7.1142   -1.8760    3.6819 C   0  0  0  0  0  0  0  0  0  0  0  0
    7.7880   -2.1922    2.5048 C   0  0  0  0  0  0  0  0  0  0  0  0
    7.0698   -2.5226    1.3671 C   0  0  0  0  0  0  0  0  0  0  0  0
    9.1309   -2.1095    2.7352 O   0  0  0  0  0  0  0  0  0  0  0  0
    9.2666   -1.3445    3.9475 C   0  0  0  0  0  0  0  0  0  0  0  0
    8.0349   -1.5953    4.6498 O   0  0  0  0  0  0  0  0  0  0  0  0
    1.1755   -5.6083    0.2013 O   0  0  0  0  0  0  0  0  0  0  0  0
   -0.9595    1.9054    0.0457 H   0  0  0  0  0  0  0  0  0  0  0  0
    1.1486    3.1719    0.1078 H   0  0  0  0  0  0  0  0  0  0  0  0
    3.3030    1.9858    0.0723 H   0  0  0  0  0  0  0  0  0  0  0  0
    1.2170   -1.7576   -0.0985 H   0  0  0  0  0  0  0  0  0  0  0  0
   -0.9265   -0.5520   -0.0618 H   0  0  0  0  0  0  0  0  0  0  0  0
    1.9270   -2.7013    0.9266 H   0  0  0  0  0  0  0  0  0  0  0  0
    1.9985   -2.8239   -0.8527 H   0  0  0  0  0  0  0  0  0  0  0  0
    1.5002   -8.1466    0.3873 H   0  0  0  0  0  0  0  0  0  0  0  0
    2.8798  -10.1567    0.5796 H   0  0  0  0  0  0  0  0  0  0  0  0
    5.3301   -9.9821    0.6661 H   0  0  0  0  0  0  0  0  0  0  0  0
    6.4304   -7.7912    0.5618 H   0  0  0  0  0  0  0  0  0  0  0  0
    5.5353   -2.7481   -0.7238 H   0  0  0  0  0  0  0  0  0  0  0  0
    3.9391   -2.2217    2.5886 H   0  0  0  0  0  0  0  0  0  0  0  0
    5.2039   -1.6435    4.6189 H   0  0  0  0  0  0  0  0  0  0  0  0
    7.5897   -2.7726    0.4541 H   0  0  0  0  0  0  0  0  0  0  0  0
   10.1180   -1.6971    4.5296 H   0  0  0  0  0  0  0  0  0  0  0  0
    9.3692   -0.2832    3.7212 H   0  0  0  0  0  0  0  0  0  0  0  0
    6.1377   -5.3950    0.3860 H   0  0  0  0  0  0  0  0  0  0  0  0
  1  6  2  0  0  0  0
  1  2  1  0  0  0  0
  1 32  1  0  0  0  0
  2  3  2  0  0  0  0
  2 33  1  0  0  0  0
  3  4  1  0  0  0  0
  3 34  1  0  0  0  0
  4  5  2  0  0  0  0
  4  7  1  0  0  0  0
  5  6  1  0  0  0  0
  5 35  1  0  0  0  0
  6 36  1  0  0  0  0
  7  8  2  0  0  0  0
  7  9  1  0  0  0  0
  9 21  1  0  0  0  0
  9 10  1  0  0  0  0
 10 11  1  0  0  0  0
 10 37  1  0  0  0  0
 10 38  1  0  0  0  0
 11 20  2  0  0  0  0
 11 12  1  0  0  0  0
 12 13  1  0  0  0  0
 12 31  2  0  0  0  0
 13 18  2  0  0  0  0
 13 14  1  0  0  0  0
 14 15  2  0  0  0  0
 14 39  1  0  0  0  0
 15 16  1  0  0  0  0
 15 40  1  0  0  0  0
 16 17  2  0  0  0  0
 16 41  1  0  0  0  0
 17 18  1  0  0  0  0
 17 42  1  0  0  0  0
 18 19  1  0  0  0  0
 19 20  1  0  0  0  0
 19 49  1  0  0  0  0
 20 21  1  0  0  0  0
 21 22  1  0  0  0  0
 21 43  1  0  0  0  0
 22 27  2  0  0  0  0
 22 23  1  0  0  0  0
 23 24  2  0  0  0  0
 23 44  1  0  0  0  0
 24 25  1  0  0  0  0
 24 45  1  0  0  0  0
 25 30  1  0  0  0  0
 25 26  2  0  0  0  0
 26 27  1  0  0  0  0
 26 28  1  0  0  0  0
 27 46  1  0  0  0  0
 28 29  1  0  0  0  0
 29 30  1  0  0  0  0
 29 47  1  0  0  0  0
 29 48  1  0  0  0  0
M  END
$$$$
CHEMBL344366
  -OEChem-07121202283D

 49 54  0     1  0  0  0  0  0999 V2000
   -0.0160    1.3803    0.0214 C   0  0  0  0  0  0  0  0  0  0  0  0
    1.1693    2.0929    0.0602 C   0  0  0  0  0  0  0  0  0  0  0  0
    2.3781    1.4284    0.0416 C   0  0  0  0  0  0  0  0  0  0  0  0
    2.4036    0.0340   -0.0165 C   0  0  0  0  0  0  0  0  0  0  0  0
    1.2043   -0.6788   -0.0554 C   0  0  0  0  0  0  0  0  0  0  0  0
    0.0022   -0.0020   -0.0362 C   0  0  0  0  0  0  0  0  0  0  0  0
    3.6955   -0.6847   -0.0372 C   0  0  0  0  0  0  0  0  0  0  0  0
    4.7351   -0.0632   -0.1394 O   0  0  0  0  0  0  0  0  0  0  0  0
    3.7204   -2.0289    0.0571 N   0  0  0  0  0  0  0  0  0  0  0  0
    2.5643   -2.9312    0.0728 C   0  0  0  0  0  0  0  0  0  0  0  0
    3.0906   -4.3401    0.1910 C   0  0  0  0  0  0  0  0  0  0  0  0
    2.3942   -5.5728    0.2474 C   0  0  0  0  0  0  0  0  0  0  0  0
    3.1843   -6.8093    0.3638 C   0  0  0  0  0  0  0  0  0  0  0  0
    2.5763   -8.0629    0.4246 C   0  0  0  0  0  0  0  0  0  0  0  0
    3.3493   -9.1853    0.5321 C   0  0  0  0  0  0  0  0  0  0  0  0
    4.7331   -9.0861    0.5811 C   0  0  0  0  0  0  0  0  0  0  0  0
    5.3531   -7.8574    0.5229 C   0  0  0  0  0  0  0  0  0  0  0  0
    4.5851   -6.7013    0.4128 C   0  0  0  0  0  0  0  0  0  0  0  0
    5.1705   -5.4595    0.3514 N   0  0  0  0  0  0  0  0  0  0  0  0
    4.4380   -4.3162    0.2435 C   0  0  0  0  0  0  0  0  0  0  0  0
    4.9087   -2.8815    0.1581 C   0  0  1  0  0  0  0  0  0  0  0  0
    5.7750   -2.6970   -1.0612 C   0  0  0  0  0  0  0  0  0  0  0  0
    5.1914   -2.5381   -2.3044 C   0  0  0  0  0  0  0  0  0  0  0  0
    5.9819   -2.3681   -3.4256 C   0  0  0  0  0  0  0  0  0  0  0  0
    7.3621   -2.3570   -3.3058 C   0  0  0  0  0  0  0  0  0  0  0  0
    7.9500   -2.5171   -2.0535 C   0  0  0  0  0  0  0  0  0  0  0  0
    7.1514   -2.6813   -0.9333 C   0  0  0  0  0  0  0  0  0  0  0  0
    9.3064   -2.4702   -2.1991 O   0  0  0  0  0  0  0  0  0  0  0  0
    9.5503   -2.6891   -3.6012 C   0  0  0  0  0  0  0  0  0  0  0  0
    8.3501   -2.2097   -4.2360 O   0  0  0  0  0  0  0  0  0  0  0  0
    1.1755   -5.6083    0.2013 O   0  0  0  0  0  0  0  0  0  0  0  0
   -0.9597    1.9051    0.0408 H   0  0  0  0  0  0  0  0  0  0  0  0
    1.1481    3.1718    0.1047 H   0  0  0  0  0  0  0  0  0  0  0  0
    3.3027    1.9858    0.0715 H   0  0  0  0  0  0  0  0  0  0  0  0
    1.2172   -1.7578   -0.1007 H   0  0  0  0  0  0  0  0  0  0  0  0
   -0.9265   -0.5524   -0.0663 H   0  0  0  0  0  0  0  0  0  0  0  0
    1.9270   -2.7013    0.9266 H   0  0  0  0  0  0  0  0  0  0  0  0
    1.9985   -2.8239   -0.8527 H   0  0  0  0  0  0  0  0  0  0  0  0
    1.5002   -8.1466    0.3873 H   0  0  0  0  0  0  0  0  0  0  0  0
    2.8798  -10.1567    0.5796 H   0  0  0  0  0  0  0  0  0  0  0  0
    5.3301   -9.9821    0.6661 H   0  0  0  0  0  0  0  0  0  0  0  0
    6.4304   -7.7912    0.5618 H   0  0  0  0  0  0  0  0  0  0  0  0
    5.4722   -2.6253    1.0553 H   0  0  0  0  0  0  0  0  0  0  0  0
    4.1157   -2.5472   -2.3998 H   0  0  0  0  0  0  0  0  0  0  0  0
    5.5233   -2.2441   -4.3955 H   0  0  0  0  0  0  0  0  0  0  0  0
    7.6045   -2.8012    0.0397 H   0  0  0  0  0  0  0  0  0  0  0  0
   10.4151   -2.1148   -3.9337 H   0  0  0  0  0  0  0  0  0  0  0  0
    9.6931   -3.7505   -3.8039 H   0  0  0  0  0  0  0  0  0  0  0  0
    6.1377   -5.3950    0.3860 H   0  0  0  0  0  0  0  0  0  0  0  0
  1  6  2  0  0  0  0
  1  2  1  0  0  0  0
  1 32  1  0  0  0  0
  2  3  2  0  0  0  0
  2 33  1  0  0  0  0
  3  4  1  0  0  0  0
  3 34  1  0  0  0  0
  4  5  2  0  0  0  0
  4  7  1  0  0  0  0
  5  6  1  0  0  0  0
  5 35  1  0  0  0  0
  6 36  1  0  0  0  0
  7  8  2  0  0  0  0
  7  9  1  0  0  0  0
  9 21  1  0  0  0  0
  9 10  1  0  0  0  0
 10 11  1  0  0  0  0
 10 37  1  0  0  0  0
 10 38  1  0  0  0  0
 11 20  2  0  0  0  0
 11 12  1  0  0  0  0
 12 13  1  0  0  0  0
 12 31  2  0  0  0  0
 13 18  2  0  0  0  0
 13 14  1  0  0  0  0
 14 15  2  0  0  0  0
 14 39  1  0  0  0  0
 15 16  1  0  0  0  0
 15 40  1  0  0  0  0
 16 17  2  0  0  0  0
 16 41  1  0  0  0  0
 17 18  1  0  0  0  0
 17 42  1  0  0  0  0
 18 19  1  0  0  0  0
 19 20  1  0  0  0  0
 19 49  1  0  0  0  0
 20 21  1  0  0  0  0
 21 22  1  0  0  0  0
 21 43  1  0  0  0  0
 22 27  2  0  0  0  0
 22 23  1  0  0  0  0
 23 24  2  0  0  0  0
 23 44  1  0  0  0  0
 24 25  1  0  0  0  0
 24 45  1  0  0  0  0
 25 30  1  0  0  0  0
 25 26  2  0  0  0  0
 26 27  1  0  0  0  0
 26 28  1  0  0  0  0
 27 46  1  0  0  0  0
 28 29  1  0  0  0  0
 29 30  1  0  0  0  0
 29 47  1  0  0  0  0
 29 48  1  0  0  0  0
M  END
$$$$
CHEMBL138799
  -OEChem-07121202283D

 48 53  0     1  0  0  0  0  0999 V2000
    0.0087    1.3733    0.2776 C   0  0  0  0  0  0  0  0  0  0  0  0
    1.1965    2.0913    0.2503 C   0  0  0  0  0  0  0  0  0  0  0  0
    2.4100    1.4424    0.1891 C   0  0  0  0  0  0  0  0  0  0  0  0
    2.4477    0.0509    0.1546 C   0  0  0  0  0  0  0  0  0  0  0  0
    1.2409   -0.6696    0.1830 C   0  0  0  0  0  0  0  0  0  0  0  0
    0.0229    0.0068    0.2446 C   0  0  0  0  0  0  0  0  0  0  0  0
    1.3065   -2.1396    0.1456 C   0  0  0  0  0  0  0  0  0  0  0  0
    2.5846   -2.7481    0.0828 C   0  0  0  0  0  0  0  0  0  0  0  0
    3.6993   -1.9895    0.0588 C   0  0  0  0  0  0  0  0  0  0  0  0
    3.6403   -0.6291    0.0930 N   0  0  0  0  0  0  0  0  0  0  0  0
    4.9093   -2.8944   -0.0079 C   0  0  2  0  0  0  0  0  0  0  0  0
    4.4285   -4.2793   -0.0224 N   0  0  0  0  0  0  0  0  0  0  0  0
    2.9648   -4.2072    0.0342 C   0  0  0  0  0  0  0  0  0  0  0  0
    5.1813   -5.3958   -0.0778 C   0  0  0  0  0  0  0  0  0  0  0  0
    6.3856   -5.3105   -0.2191 O   0  0  0  0  0  0  0  0  0  0  0  0
    4.5424   -6.7244    0.0333 C   0  0  0  0  0  0  0  0  0  0  0  0
    3.1474   -6.8450    0.0429 C   0  0  0  0  0  0  0  0  0  0  0  0
    2.5994   -8.1110    0.1483 C   0  0  0  0  0  0  0  0  0  0  0  0
    3.4390   -9.2068    0.2401 C   0  0  0  0  0  0  0  0  0  0  0  0
    4.7503   -9.0629    0.2286 N   0  0  0  0  0  0  0  0  0  0  0  0
    5.3193   -7.8797    0.1247 C   0  0  0  0  0  0  0  0  0  0  0  0
    5.7828   -2.6694    1.1993 C   0  0  0  0  0  0  0  0  0  0  0  0
    5.4593   -3.2634    2.4051 C   0  0  0  0  0  0  0  0  0  0  0  0
    6.2578   -3.0605    3.5152 C   0  0  0  0  0  0  0  0  0  0  0  0
    7.3848   -2.2601    3.4216 C   0  0  0  0  0  0  0  0  0  0  0  0
    7.7106   -1.6617    2.2070 C   0  0  0  0  0  0  0  0  0  0  0  0
    6.9089   -1.8742    1.0972 C   0  0  0  0  0  0  0  0  0  0  0  0
    8.8519   -0.9315    2.3727 O   0  0  0  0  0  0  0  0  0  0  0  0
    8.9943   -0.7580    3.7950 C   0  0  0  0  0  0  0  0  0  0  0  0
    8.3220   -1.9048    4.3483 O   0  0  0  0  0  0  0  0  0  0  0  0
    0.2902   -2.8143    0.1683 O   0  0  0  0  0  0  0  0  0  0  0  0
   -0.9336    1.8983    0.3298 H   0  0  0  0  0  0  0  0  0  0  0  0
    1.1689    3.1706    0.2770 H   0  0  0  0  0  0  0  0  0  0  0  0
    3.3283    2.0105    0.1676 H   0  0  0  0  0  0  0  0  0  0  0  0
   -0.9045   -0.5462    0.2664 H   0  0  0  0  0  0  0  0  0  0  0  0
    5.4741   -2.6898   -0.9174 H   0  0  0  0  0  0  0  0  0  0  0  0
    2.6037   -4.7137    0.9293 H   0  0  0  0  0  0  0  0  0  0  0  0
    2.5367   -4.6718   -0.8540 H   0  0  0  0  0  0  0  0  0  0  0  0
    2.5155   -5.9721   -0.0298 H   0  0  0  0  0  0  0  0  0  0  0  0
    1.5275   -8.2424    0.1593 H   0  0  0  0  0  0  0  0  0  0  0  0
    3.0139  -10.1962    0.3229 H   0  0  0  0  0  0  0  0  0  0  0  0
    6.3965   -7.8027    0.1141 H   0  0  0  0  0  0  0  0  0  0  0  0
    4.5808   -3.8871    2.4800 H   0  0  0  0  0  0  0  0  0  0  0  0
    6.0027   -3.5257    4.4558 H   0  0  0  0  0  0  0  0  0  0  0  0
    7.1616   -1.4151    0.1529 H   0  0  0  0  0  0  0  0  0  0  0  0
   10.0471   -0.7581    4.0774 H   0  0  0  0  0  0  0  0  0  0  0  0
    8.5099    0.1631    4.1189 H   0  0  0  0  0  0  0  0  0  0  0  0
    4.4678   -0.1233    0.0735 H   0  0  0  0  0  0  0  0  0  0  0  0
  1  6  2  0  0  0  0
  1  2  1  0  0  0  0
  1 32  1  0  0  0  0
  2  3  2  0  0  0  0
  2 33  1  0  0  0  0
  3  4  1  0  0  0  0
  3 34  1  0  0  0  0
  4 10  1  0  0  0  0
  4  5  2  0  0  0  0
  5  6  1  0  0  0  0
  5  7  1  0  0  0  0
  6 35  1  0  0  0  0
  7  8  1  0  0  0  0
  7 31  2  0  0  0  0
  8 13  1  0  0  0  0
  8  9  2  0  0  0  0
  9 10  1  0  0  0  0
  9 11  1  0  0  0  0
 10 48  1  0  0  0  0
 11 12  1  0  0  0  0
 11 22  1  0  0  0  0
 11 36  1  0  0  0  0
 12 13  1  0  0  0  0
 12 14  1  0  0  0  0
 13 37  1  0  0  0  0
 13 38  1  0  0  0  0
 14 15  2  0  0  0  0
 14 16  1  0  0  0  0
 16 21  2  0  0  0  0
 16 17  1  0  0  0  0
 17 18  2  0  0  0  0
 17 39  1  0  0  0  0
 18 19  1  0  0  0  0
 18 40  1  0  0  0  0
 19 20  2  0  0  0  0
 19 41  1  0  0  0  0
 20 21  1  0  0  0  0
 21 42  1  0  0  0  0
 22 27  2  0  0  0  0
 22 23  1  0  0  0  0
 23 24  2  0  0  0  0
 23 43  1  0  0  0  0
 24 25  1  0  0  0  0
 24 44  1  0  0  0  0
 25 30  1  0  0  0  0
 25 26  2  0  0  0  0
 26 27  1  0  0  0  0
 26 28  1  0  0  0  0
 27 45  1  0  0  0  0
 28 29  1  0  0  0  0
 29 30  1  0  0  0  0
 29 46  1  0  0  0  0
 29 47  1  0  0  0  0
M  END
$$$$
CHEMBL138799
  -OEChem-07121202283D

 48 53  0     1  0  0  0  0  0999 V2000
    0.0087    1.3733    0.2780 C   0  0  0  0  0  0  0  0  0  0  0  0
    1.1965    2.0913    0.2492 C   0  0  0  0  0  0  0  0  0  0  0  0
    2.4100    1.4424    0.1873 C   0  0  0  0  0  0  0  0  0  0  0  0
    2.4477    0.0509    0.1536 C   0  0  0  0  0  0  0  0  0  0  0  0
    1.2409   -0.6696    0.1836 C   0  0  0  0  0  0  0  0  0  0  0  0
    0.0229    0.0068    0.2458 C   0  0  0  0  0  0  0  0  0  0  0  0
    1.3065   -2.1396    0.1470 C   0  0  0  0  0  0  0  0  0  0  0  0
    2.5846   -2.7481    0.0835 C   0  0  0  0  0  0  0  0  0  0  0  0
    3.6993   -1.9894    0.0580 C   0  0  0  0  0  0  0  0  0  0  0  0
    3.6403   -0.6290    0.0914 N   0  0  0  0  0  0  0  0  0  0  0  0
    4.9092   -2.8944   -0.0092 C   0  0  1  0  0  0  0  0  0  0  0  0
    4.4285   -4.2793   -0.0224 N   0  0  0  0  0  0  0  0  0  0  0  0
    2.9649   -4.2072    0.0355 C   0  0  0  0  0  0  0  0  0  0  0  0
    5.1813   -5.3958   -0.0778 C   0  0  0  0  0  0  0  0  0  0  0  0
    6.3856   -5.3105   -0.2191 O   0  0  0  0  0  0  0  0  0  0  0  0
    4.5424   -6.7244    0.0333 C   0  0  0  0  0  0  0  0  0  0  0  0
    3.1474   -6.8450    0.0429 C   0  0  0  0  0  0  0  0  0  0  0  0
    2.5994   -8.1110    0.1483 C   0  0  0  0  0  0  0  0  0  0  0  0
    3.4390   -9.2068    0.2401 C   0  0  0  0  0  0  0  0  0  0  0  0
    4.7503   -9.0629    0.2286 N   0  0  0  0  0  0  0  0  0  0  0  0
    5.3193   -7.8797    0.1247 C   0  0  0  0  0  0  0  0  0  0  0  0
    5.6891   -2.6122   -1.2675 C   0  0  0  0  0  0  0  0  0  0  0  0
    5.2676   -3.1409   -2.4734 C   0  0  0  0  0  0  0  0  0  0  0  0
    5.9793   -2.8844   -3.6304 C   0  0  0  0  0  0  0  0  0  0  0  0
    7.1180   -2.0966   -3.5837 C   0  0  0  0  0  0  0  0  0  0  0  0
    7.5426   -1.5641   -2.3690 C   0  0  0  0  0  0  0  0  0  0  0  0
    6.8211   -1.8205   -1.2143 C   0  0  0  0  0  0  0  0  0  0  0  0
    8.6749   -0.8331   -2.5851 O   0  0  0  0  0  0  0  0  0  0  0  0
    9.1678   -1.2583   -3.8694 C   0  0  0  0  0  0  0  0  0  0  0  0
    7.9843   -1.6992   -4.5609 O   0  0  0  0  0  0  0  0  0  0  0  0
    0.2903   -2.8144    0.1710 O   0  0  0  0  0  0  0  0  0  0  0  0
   -0.9336    1.8983    0.3307 H   0  0  0  0  0  0  0  0  0  0  0  0
    1.1688    3.1707    0.2752 H   0  0  0  0  0  0  0  0  0  0  0  0
    3.3282    2.0105    0.1646 H   0  0  0  0  0  0  0  0  0  0  0  0
   -0.9045   -0.5463    0.2689 H   0  0  0  0  0  0  0  0  0  0  0  0
    5.5418   -2.7311    0.8633 H   0  0  0  0  0  0  0  0  0  0  0  0
    2.6046   -4.7132    0.9311 H   0  0  0  0  0  0  0  0  0  0  0  0
    2.5360   -4.6724   -0.8521 H   0  0  0  0  0  0  0  0  0  0  0  0
    2.5155   -5.9721   -0.0298 H   0  0  0  0  0  0  0  0  0  0  0  0
    1.5275   -8.2424    0.1593 H   0  0  0  0  0  0  0  0  0  0  0  0
    3.0139  -10.1962    0.3229 H   0  0  0  0  0  0  0  0  0  0  0  0
    6.3965   -7.8027    0.1141 H   0  0  0  0  0  0  0  0  0  0  0  0
    4.3806   -3.7559   -2.5115 H   0  0  0  0  0  0  0  0  0  0  0  0
    5.6478   -3.2987   -4.5710 H   0  0  0  0  0  0  0  0  0  0  0  0
    7.1455   -1.4052   -0.2717 H   0  0  0  0  0  0  0  0  0  0  0  0
    9.6313   -0.4246   -4.3969 H   0  0  0  0  0  0  0  0  0  0  0  0
    9.8737   -2.0809   -3.7556 H   0  0  0  0  0  0  0  0  0  0  0  0
    4.4677   -0.1233    0.0709 H   0  0  0  0  0  0  0  0  0  0  0  0
  1  6  2  0  0  0  0
  1  2  1  0  0  0  0
  1 32  1  0  0  0  0
  2  3  2  0  0  0  0
  2 33  1  0  0  0  0
  3  4  1  0  0  0  0
  3 34  1  0  0  0  0
  4 10  1  0  0  0  0
  4  5  2  0  0  0  0
  5  6  1  0  0  0  0
  5  7  1  0  0  0  0
  6 35  1  0  0  0  0
  7  8  1  0  0  0  0
  7 31  2  0  0  0  0
  8 13  1  0  0  0  0
  8  9  2  0  0  0  0
  9 10  1  0  0  0  0
  9 11  1  0  0  0  0
 10 48  1  0  0  0  0
 11 12  1  0  0  0  0
 11 22  1  0  0  0  0
 11 36  1  0  0  0  0
 12 13  1  0  0  0  0
 12 14  1  0  0  0  0
 13 37  1  0  0  0  0
 13 38  1  0  0  0  0
 14 15  2  0  0  0  0
 14 16  1  0  0  0  0
 16 21  2  0  0  0  0
 16 17  1  0  0  0  0
 17 18  2  0  0  0  0
 17 39  1  0  0  0  0
 18 19  1  0  0  0  0
 18 40  1  0  0  0  0
 19 20  2  0  0  0  0
 19 41  1  0  0  0  0
 20 21  1  0  0  0  0
 21 42  1  0  0  0  0
 22 27  2  0  0  0  0
 22 23  1  0  0  0  0
 23 24  2  0  0  0  0
 23 43  1  0  0  0  0
 24 25  1  0  0  0  0
 24 44  1  0  0  0  0
 25 30  1  0  0  0  0
 25 26  2  0  0  0  0
 26 27  1  0  0  0  0
 26 28  1  0  0  0  0
 27 45  1  0  0  0  0
 28 29  1  0  0  0  0
 29 30  1  0  0  0  0
 29 46  1  0  0  0  0
 29 47  1  0  0  0  0
M  END
$$$$
CHEMBL556514
  -OEChem-07121202283D

 64 68  0     0  0  0  0  0  0999 V2000
   -0.0173    1.4248    0.0099 C   0  0  0  0  0  0  0  0  0  0  0  0
    0.0021   -0.0041    0.0020 O   0  0  0  0  0  0  0  0  0  0  0  0
   -1.2003   -0.6375    0.0101 C   0  0  0  0  0  0  0  0  0  0  0  0
   -2.3746    0.1011    0.0195 C   0  0  0  0  0  0  0  0  0  0  0  0
   -3.5956   -0.5451    0.0272 C   0  0  0  0  0  0  0  0  0  0  0  0
   -3.6478   -1.9268    0.0260 C   0  0  0  0  0  0  0  0  0  0  0  0
   -2.4788   -2.6651    0.0172 C   0  0  0  0  0  0  0  0  0  0  0  0
   -1.2554   -2.0237    0.0032 C   0  0  0  0  0  0  0  0  0  0  0  0
   -4.9811   -2.6292    0.0350 C   0  0  0  0  0  0  0  0  0  0  0  0
   -5.4232   -2.8552   -1.3433 N   0  0  0  0  0  0  0  0  0  0  0  0
   -6.1842   -1.9071   -1.9975 C   0  0  0  0  0  0  0  0  0  0  0  0
   -6.6024   -2.1362   -3.3224 C   0  0  0  0  0  0  0  0  0  0  0  0
   -7.3764   -1.1596   -3.9722 C   0  0  0  0  0  0  0  0  0  0  0  0
   -7.6953   -0.0184   -3.2889 C   0  0  0  0  0  0  0  0  0  0  0  0
   -7.2480    0.1465   -1.9752 C   0  0  0  0  0  0  0  0  0  0  0  0
   -6.5190   -0.7853   -1.3774 N   0  0  0  0  0  0  0  0  0  0  0  0
   -7.5947    1.3841   -1.2379 C   0  0  0  0  0  0  0  0  0  0  0  0
   -8.3659    2.3711   -1.8514 C   0  0  0  0  0  0  0  0  0  0  0  0
   -8.6864    3.5212   -1.1609 C   0  0  0  0  0  0  0  0  0  0  0  0
   -8.2431    3.6971    0.1404 C   0  0  0  0  0  0  0  0  0  0  0  0
   -7.4762    2.7194    0.7540 C   0  0  0  0  0  0  0  0  0  0  0  0
   -7.1557    1.5632    0.0737 C   0  0  0  0  0  0  0  0  0  0  0  0
   -8.5592    4.8256    0.8126 F   0  0  0  0  0  0  0  0  0  0  0  0
   -6.2706   -3.2722   -3.9658 N   0  0  0  0  0  0  0  0  0  0  0  0
   -5.5501   -4.1933   -3.3765 C   0  0  0  0  0  0  0  0  0  0  0  0
   -5.0868   -3.9910   -1.9914 C   0  0  0  0  0  0  0  0  0  0  0  0
   -4.4124   -4.8394   -1.4375 O   0  0  0  0  0  0  0  0  0  0  0  0
   -5.2199   -5.3535   -4.0547 N   0  0  0  0  0  0  0  0  0  0  0  0
   -5.6763   -5.5516   -5.4327 C   0  0  0  0  0  0  0  0  0  0  0  0
   -5.1782   -6.9044   -5.9454 C   0  0  0  0  0  0  0  0  0  0  0  0
   -5.6358   -7.1031   -7.3271 N   0  0  0  0  0  0  0  0  0  0  0  0
   -7.0992   -7.2322   -7.3839 C   0  0  0  0  0  0  0  0  0  0  0  0
   -7.5370   -7.3773   -8.8438 C   0  0  0  0  0  0  0  0  0  0  0  0
   -6.8712   -8.5010   -9.4264 O   0  0  0  0  0  0  0  0  0  0  0  0
   -5.4446   -8.4081   -9.3886 C   0  0  0  0  0  0  0  0  0  0  0  0
   -4.9856   -8.2734   -7.9343 C   0  0  0  0  0  0  0  0  0  0  0  0
    1.0053    1.8021    0.0021 H   0  0  0  0  0  0  0  0  0  0  0  0
   -0.5445    1.7859   -0.8732 H   0  0  0  0  0  0  0  0  0  0  0  0
   -0.5275    1.7763    0.9067 H   0  0  0  0  0  0  0  0  0  0  0  0
   -2.3343    1.1803    0.0211 H   0  0  0  0  0  0  0  0  0  0  0  0
   -4.5101    0.0294    0.0345 H   0  0  0  0  0  0  0  0  0  0  0  0
   -2.5223   -3.7443    0.0166 H   0  0  0  0  0  0  0  0  0  0  0  0
   -0.3427   -2.6008   -0.0082 H   0  0  0  0  0  0  0  0  0  0  0  0
   -4.8840   -3.5865    0.5470 H   0  0  0  0  0  0  0  0  0  0  0  0
   -5.7136   -2.0117    0.5548 H   0  0  0  0  0  0  0  0  0  0  0  0
   -7.7117   -1.3067   -4.9882 H   0  0  0  0  0  0  0  0  0  0  0  0
   -8.2885    0.7504   -3.7616 H   0  0  0  0  0  0  0  0  0  0  0  0
   -8.7112    2.2351   -2.8656 H   0  0  0  0  0  0  0  0  0  0  0  0
   -9.2835    4.2860   -1.6351 H   0  0  0  0  0  0  0  0  0  0  0  0
   -7.1327    2.8611    1.7681 H   0  0  0  0  0  0  0  0  0  0  0  0
   -6.5618    0.7998    0.5543 H   0  0  0  0  0  0  0  0  0  0  0  0
   -4.6862   -6.0355   -3.6178 H   0  0  0  0  0  0  0  0  0  0  0  0
   -6.7657   -5.5311   -5.4610 H   0  0  0  0  0  0  0  0  0  0  0  0
   -5.2813   -4.7559   -6.0642 H   0  0  0  0  0  0  0  0  0  0  0  0
   -4.0887   -6.9249   -5.9170 H   0  0  0  0  0  0  0  0  0  0  0  0
   -5.5732   -7.7001   -5.3138 H   0  0  0  0  0  0  0  0  0  0  0  0
   -7.4089   -8.1132   -6.8217 H   0  0  0  0  0  0  0  0  0  0  0  0
   -7.5600   -6.3437   -6.9523 H   0  0  0  0  0  0  0  0  0  0  0  0
   -8.6153   -7.5306   -8.8869 H   0  0  0  0  0  0  0  0  0  0  0  0
   -7.2749   -6.4736   -9.3939 H   0  0  0  0  0  0  0  0  0  0  0  0
   -5.0096   -9.3069   -9.8258 H   0  0  0  0  0  0  0  0  0  0  0  0
   -5.1217   -7.5343   -9.9546 H   0  0  0  0  0  0  0  0  0  0  0  0
   -3.9036   -8.1450   -7.9045 H   0  0  0  0  0  0  0  0  0  0  0  0
   -5.2616   -9.1711   -7.3809 H   0  0  0  0  0  0  0  0  0  0  0  0
  1  2  1  0  0  0  0
  1 37  1  0  0  0  0
  1 38  1  0  0  0  0
  1 39  1  0  0  0  0
  2  3  1  0  0  0  0
  3  8  2  0  0  0  0
  3  4  1  0  0  0  0
  4  5  2  0  0  0  0
  4 40  1  0  0  0  0
  5  6  1  0  0  0  0
  5 41  1  0  0  0  0
  6  7  2  0  0  0  0
  6  9  1  0  0  0  0
  7  8  1  0  0  0  0
  7 42  1  0  0  0  0
  8 43  1  0  0  0  0
  9 10  1  0  0  0  0
  9 44  1  0  0  0  0
  9 45  1  0  0  0  0
 10 26  1  0  0  0  0
 10 11  1  0  0  0  0
 11 16  2  0  0  0  0
 11 12  1  0  0  0  0
 12 13  2  0  0  0  0
 12 24  1  0  0  0  0
 13 14  1  0  0  0  0
 13 46  1  0  0  0  0
 14 15  2  0  0  0  0
 14 47  1  0  0  0  0
 15 16  1  0  0  0  0
 15 17  1  0  0  0  0
 17 22  2  0  0  0  0
 17 18  1  0  0  0  0
 18 19  2  0  0  0  0
 18 48  1  0  0  0  0
 19 20  1  0  0  0  0
 19 49  1  0  0  0  0
 20 21  2  0  0  0  0
 20 23  1  0  0  0  0
 21 22  1  0  0  0  0
 21 50  1  0  0  0  0
 22 51  1  0  0  0  0
 24 25  2  0  0  0  0
 25 26  1  0  0  0  0
 25 28  1  0  0  0  0
 26 27  2  0  0  0  0
 28 29  1  0  0  0  0
 28 52  1  0  0  0  0
 29 30  1  0  0  0  0
 29 53  1  0  0  0  0
 29 54  1  0  0  0  0
 30 31  1  0  0  0  0
 30 55  1  0  0  0  0
 30 56  1  0  0  0  0
 31 36  1  0  0  0  0
 31 32  1  0  0  0  0
 32 33  1  0  0  0  0
 32 57  1  0  0  0  0
 32 58  1  0  0  0  0
 33 34  1  0  0  0  0
 33 59  1  0  0  0  0
 33 60  1  0  0  0  0
 34 35  1  0  0  0  0
 35 36  1  0  0  0  0
 35 61  1  0  0  0  0
 35 62  1  0  0  0  0
 36 63  1  0  0  0  0
 36 64  1  0  0  0  0
M  END
$$$$
CHEMBL556514
  -OEChem-07121202283D

 65 69  0     0  0  0  0  0  0999 V2000
   -0.0173    1.4248    0.0099 C   0  0  0  0  0  0  0  0  0  0  0  0
    0.0021   -0.0041    0.0020 O   0  0  0  0  0  0  0  0  0  0  0  0
    0.6058   -0.6071   -1.0557 C   0  0  0  0  0  0  0  0  0  0  0  0
    1.1730    0.1607   -2.0624 C   0  0  0  0  0  0  0  0  0  0  0  0
    1.7865   -0.4547   -3.1363 C   0  0  0  0  0  0  0  0  0  0  0  0
    1.8352   -1.8346   -3.2086 C   0  0  0  0  0  0  0  0  0  0  0  0
    1.2702   -2.6021   -2.2068 C   0  0  0  0  0  0  0  0  0  0  0  0
    0.6609   -1.9915   -1.1277 C   0  0  0  0  0  0  0  0  0  0  0  0
    2.5046   -2.5033   -4.3815 C   0  0  0  0  0  0  0  0  0  0  0  0
    3.9227   -2.7134   -4.0797 N   0  0  0  0  0  0  0  0  0  0  0  0
    4.8548   -1.7442   -4.3925 C   0  0  0  0  0  0  0  0  0  0  0  0
    6.2148   -1.9581   -4.0968 C   0  0  0  0  0  0  0  0  0  0  0  0
    7.1491   -0.9601   -4.4226 C   0  0  0  0  0  0  0  0  0  0  0  0
    6.6989    0.1863   -5.0175 C   0  0  0  0  0  0  0  0  0  0  0  0
    5.3352    0.3353   -5.2838 C   0  0  0  0  0  0  0  0  0  0  0  0
    4.4677   -0.6166   -4.9700 N   0  0  0  0  0  0  0  0  0  0  0  0
    4.8506    1.5787   -5.9278 C   0  0  0  0  0  0  0  0  0  0  0  0
    5.7519    2.5868   -6.2690 C   0  0  0  0  0  0  0  0  0  0  0  0
    5.2961    3.7422   -6.8688 C   0  0  0  0  0  0  0  0  0  0  0  0
    3.9449    3.9024   -7.1320 C   0  0  0  0  0  0  0  0  0  0  0  0
    3.0454    2.9036   -6.7943 C   0  0  0  0  0  0  0  0  0  0  0  0
    3.4925    1.7421   -6.1999 C   0  0  0  0  0  0  0  0  0  0  0  0
    3.5031    5.0361   -7.7192 F   0  0  0  0  0  0  0  0  0  0  0  0
    6.6239   -3.0999   -3.5106 N   0  0  0  0  0  0  0  0  0  0  0  0
    5.7678   -4.0408   -3.1998 C   0  0  0  0  0  0  0  0  0  0  0  0
    4.3336   -3.8550   -3.4871 C   0  0  0  0  0  0  0  0  0  0  0  0
    3.5301   -4.7220   -3.1971 O   0  0  0  0  0  0  0  0  0  0  0  0
    6.2083   -5.2065   -2.5980 N   0  0  0  0  0  0  0  0  0  0  0  0
    7.6328   -5.3883   -2.3082 C   0  0  0  0  0  0  0  0  0  0  0  0
    7.8490   -6.7514   -1.6477 C   0  0  0  0  0  0  0  0  0  0  0  0
    9.2774   -6.9336   -1.3571 N   0  3  0  0  0  0  0  0  0  0  0  0
   10.0305   -6.9898   -2.6176 C   0  0  0  0  0  0  0  0  0  0  0  0
   11.5184   -7.1795   -2.3122 C   0  0  0  0  0  0  0  0  0  0  0  0
   11.6933   -8.3721   -1.5421 O   0  0  0  0  0  0  0  0  0  0  0  0
   10.9594   -8.3752   -0.3144 C   0  0  0  0  0  0  0  0  0  0  0  0
    9.4705   -8.1877   -0.6161 C   0  0  0  0  0  0  0  0  0  0  0  0
    1.0053    1.8021    0.0021 H   0  0  0  0  0  0  0  0  0  0  0  0
   -0.5445    1.7859   -0.8732 H   0  0  0  0  0  0  0  0  0  0  0  0
   -0.5275    1.7763    0.9067 H   0  0  0  0  0  0  0  0  0  0  0  0
    1.1347    1.2385   -2.0068 H   0  0  0  0  0  0  0  0  0  0  0  0
    2.2283    0.1425   -3.9203 H   0  0  0  0  0  0  0  0  0  0  0  0
    1.3092   -3.6798   -2.2657 H   0  0  0  0  0  0  0  0  0  0  0  0
    0.2237   -2.5913   -0.3432 H   0  0  0  0  0  0  0  0  0  0  0  0
    2.0276   -3.4646   -4.5726 H   0  0  0  0  0  0  0  0  0  0  0  0
    2.4108   -1.8695   -5.2632 H   0  0  0  0  0  0  0  0  0  0  0  0
    8.1989   -1.0952   -4.2079 H   0  0  0  0  0  0  0  0  0  0  0  0
    7.3928    0.9714   -5.2794 H   0  0  0  0  0  0  0  0  0  0  0  0
    6.8049    2.4631   -6.0637 H   0  0  0  0  0  0  0  0  0  0  0  0
    5.9933    4.5234   -7.1334 H   0  0  0  0  0  0  0  0  0  0  0  0
    1.9934    3.0331   -7.0010 H   0  0  0  0  0  0  0  0  0  0  0  0
    2.7914    0.9624   -5.9412 H   0  0  0  0  0  0  0  0  0  0  0  0
    5.5738   -5.9033   -2.3680 H   0  0  0  0  0  0  0  0  0  0  0  0
    8.2015   -5.3403   -3.2369 H   0  0  0  0  0  0  0  0  0  0  0  0
    7.9699   -4.6005   -1.6346 H   0  0  0  0  0  0  0  0  0  0  0  0
    7.2803   -6.7993   -0.7190 H   0  0  0  0  0  0  0  0  0  0  0  0
    7.5118   -7.5391   -2.3213 H   0  0  0  0  0  0  0  0  0  0  0  0
    9.6729   -7.8265   -3.2178 H   0  0  0  0  0  0  0  0  0  0  0  0
    9.8880   -6.0599   -3.1681 H   0  0  0  0  0  0  0  0  0  0  0  0
   12.0737   -7.2647   -3.2462 H   0  0  0  0  0  0  0  0  0  0  0  0
   11.8858   -6.3236   -1.7462 H   0  0  0  0  0  0  0  0  0  0  0  0
   11.1102   -9.3257    0.1974 H   0  0  0  0  0  0  0  0  0  0  0  0
   11.3077   -7.5601    0.3200 H   0  0  0  0  0  0  0  0  0  0  0  0
    8.9123   -8.1470    0.3192 H   0  0  0  0  0  0  0  0  0  0  0  0
    9.1131   -9.0239   -1.2171 H   0  0  0  0  0  0  0  0  0  0  0  0
    9.6090   -6.1598   -0.8011 H   0  0  0  0  0  0  0  0  0  0  0  0
  1  2  1  0  0  0  0
  1 37  1  0  0  0  0
  1 38  1  0  0  0  0
  1 39  1  0  0  0  0
  2  3  1  0  0  0  0
  3  8  2  0  0  0  0
  3  4  1  0  0  0  0
  4  5  2  0  0  0  0
  4 40  1  0  0  0  0
  5  6  1  0  0  0  0
  5 41  1  0  0  0  0
  6  7  2  0  0  0  0
  6  9  1  0  0  0  0
  7  8  1  0  0  0  0
  7 42  1  0  0  0  0
  8 43  1  0  0  0  0
  9 10  1  0  0  0  0
  9 44  1  0  0  0  0
  9 45  1  0  0  0  0
 10 26  1  0  0  0  0
 10 11  1  0  0  0  0
 11 16  2  0  0  0  0
 11 12  1  0  0  0  0
 12 13  2  0  0  0  0
 12 24  1  0  0  0  0
 13 14  1  0  0  0  0
 13 46  1  0  0  0  0
 14 15  2  0  0  0  0
 14 47  1  0  0  0  0
 15 16  1  0  0  0  0
 15 17  1  0  0  0  0
 17 22  2  0  0  0  0
 17 18  1  0  0  0  0
 18 19  2  0  0  0  0
 18 48  1  0  0  0  0
 19 20  1  0  0  0  0
 19 49  1  0  0  0  0
 20 21  2  0  0  0  0
 20 23  1  0  0  0  0
 21 22  1  0  0  0  0
 21 50  1  0  0  0  0
 22 51  1  0  0  0  0
 24 25  2  0  0  0  0
 25 26  1  0  0  0  0
 25 28  1  0  0  0  0
 26 27  2  0  0  0  0
 28 29  1  0  0  0  0
 28 52  1  0  0  0  0
 29 30  1  0  0  0  0
 29 53  1  0  0  0  0
 29 54  1  0  0  0  0
 30 31  1  0  0  0  0
 30 55  1  0  0  0  0
 30 56  1  0  0  0  0
 31 36  1  0  0  0  0
 31 32  1  0  0  0  0
 31 65  1  0  0  0  0
 32 33  1  0  0  0  0
 32 57  1  0  0  0  0
 32 58  1  0  0  0  0
 33 34  1  0  0  0  0
 33 59  1  0  0  0  0
 33 60  1  0  0  0  0
 34 35  1  0  0  0  0
 35 36  1  0  0  0  0
 35 61  1  0  0  0  0
 35 62  1  0  0  0  0
 36 63  1  0  0  0  0
 36 64  1  0  0  0  0
M  CHG  1  31   1
M  END
$$$$
CHEMBL33627
  -OEChem-07121202283D

 74 80  0     1  0  0  0  0  0999 V2000
   -0.4584    1.6367   -0.2547 C   0  0  0  0  0  0  0  0  0  0  0  0
   -0.4077    0.1728   -0.2278 N   0  0  0  0  0  0  0  0  0  0  0  0
   -0.4038   -0.5366    1.0540 C   0  0  0  0  0  0  0  0  0  0  0  0
   -0.3647   -0.5213   -1.3823 C   0  0  0  0  0  0  0  0  0  0  0  0
   -0.3679    0.0659   -2.4434 O   0  0  0  0  0  0  0  0  0  0  0  0
   -0.3126   -2.0272   -1.3546 C   0  0  0  0  0  0  0  0  0  0  0  0
   -0.2706   -2.5625   -2.7873 C   0  0  0  0  0  0  0  0  0  0  0  0
   -0.2197   -4.0303   -2.7603 N   0  3  2  0  0  0  0  0  0  0  0  0
    1.0575   -4.4730   -2.1615 C   0  0  0  0  0  0  0  0  0  0  0  0
    1.4442   -5.7478   -2.9520 C   0  0  0  0  0  0  0  0  0  0  0  0
    0.9796   -5.3803   -4.3859 C   0  0  2  0  0  0  0  0  0  0  0  0
    1.7336   -4.7782   -4.8929 H   0  0  0  0  0  0  0  0  0  0  0  0
   -0.3001   -4.5550   -4.1359 C   0  0  0  0  0  0  0  0  0  0  0  0
    0.6786   -6.5882   -5.1584 N   0  0  0  0  0  0  0  0  0  0  0  0
   -0.3410   -7.4903   -4.6492 C   0  0  0  0  0  0  0  0  0  0  0  0
   -0.5911   -8.6357   -5.5754 C   0  0  0  0  0  0  0  0  0  0  0  0
   -1.4416   -9.4413   -5.2618 O   0  0  0  0  0  0  0  0  0  0  0  0
    0.0581   -8.8317   -6.7250 N   0  0  0  0  0  0  0  0  0  0  0  0
    1.1592   -7.9816   -7.1756 C   0  0  1  0  0  0  0  0  0  0  0  0
    0.9370   -7.6210   -8.1799 H   0  0  0  0  0  0  0  0  0  0  0  0
    1.3510   -6.7935   -6.2892 C   0  0  0  0  0  0  0  0  0  0  0  0
    2.1742   -5.9661   -6.6187 O   0  0  0  0  0  0  0  0  0  0  0  0
    2.4502   -8.8110   -7.2218 C   0  0  0  0  0  0  0  0  0  0  0  0
    2.1564  -10.1296   -7.8903 C   0  0  0  0  0  0  0  0  0  0  0  0
    3.0927  -11.0723   -8.4681 C   0  0  0  0  0  0  0  0  0  0  0  0
    4.4856  -11.0707   -8.5907 C   0  0  0  0  0  0  0  0  0  0  0  0
    5.0550  -12.1547   -9.2121 C   0  0  0  0  0  0  0  0  0  0  0  0
    4.2959  -13.2063   -9.6991 C   0  0  0  0  0  0  0  0  0  0  0  0
    2.9164  -13.2344   -9.5901 C   0  0  0  0  0  0  0  0  0  0  0  0
    2.3107  -12.1474   -8.9631 C   0  0  0  0  0  0  0  0  0  0  0  0
    1.0042  -11.8573   -8.6935 N   0  0  0  0  0  0  0  0  0  0  0  0
    0.2490  -12.4224   -8.9199 H   0  0  0  0  0  0  0  0  0  0  0  0
    0.9204  -10.6485   -8.0550 C   0  0  0  0  0  0  0  0  0  0  0  0
   -0.3433   -9.9595   -7.5925 C   0  0  1  0  0  0  0  0  0  0  0  0
   -0.8973   -9.5854   -8.4534 H   0  0  0  0  0  0  0  0  0  0  0  0
   -1.1975  -10.9260   -6.8132 C   0  0  0  0  0  0  0  0  0  0  0  0
   -2.5320  -11.0839   -7.1380 C   0  0  0  0  0  0  0  0  0  0  0  0
   -3.3195  -11.9696   -6.4264 C   0  0  0  0  0  0  0  0  0  0  0  0
   -2.7725  -12.7014   -5.3849 C   0  0  0  0  0  0  0  0  0  0  0  0
   -1.4281  -12.5423   -5.0578 C   0  0  0  0  0  0  0  0  0  0  0  0
   -0.6435  -11.6571   -5.7790 C   0  0  0  0  0  0  0  0  0  0  0  0
   -1.1342  -13.3646   -4.0086 O   0  0  0  0  0  0  0  0  0  0  0  0
   -2.4047  -13.7245   -3.4345 C   0  0  0  0  0  0  0  0  0  0  0  0
   -3.3208  -13.6234   -4.5408 O   0  0  0  0  0  0  0  0  0  0  0  0
    0.5560    2.0356   -0.2447 H   0  0  0  0  0  0  0  0  0  0  0  0
   -0.9694    1.9660   -1.1594 H   0  0  0  0  0  0  0  0  0  0  0  0
   -0.9994    1.9976    0.6200 H   0  0  0  0  0  0  0  0  0  0  0  0
   -0.4423    0.1860    1.8692 H   0  0  0  0  0  0  0  0  0  0  0  0
   -1.2724   -1.1928    1.1088 H   0  0  0  0  0  0  0  0  0  0  0  0
    0.5062   -1.1307    1.1377 H   0  0  0  0  0  0  0  0  0  0  0  0
    0.5807   -2.3500   -0.8197 H   0  0  0  0  0  0  0  0  0  0  0  0
   -1.1980   -2.4121   -0.8487 H   0  0  0  0  0  0  0  0  0  0  0  0
   -1.1638   -2.2396   -3.3221 H   0  0  0  0  0  0  0  0  0  0  0  0
    0.6149   -2.1775   -3.2931 H   0  0  0  0  0  0  0  0  0  0  0  0
    1.8206   -3.7044   -2.2840 H   0  0  0  0  0  0  0  0  0  0  0  0
    0.9205   -4.7080   -1.1060 H   0  0  0  0  0  0  0  0  0  0  0  0
    2.5209   -5.9148   -2.9212 H   0  0  0  0  0  0  0  0  0  0  0  0
    0.9048   -6.6180   -2.5778 H   0  0  0  0  0  0  0  0  0  0  0  0
   -1.1784   -5.1922   -4.2389 H   0  0  0  0  0  0  0  0  0  0  0  0
   -0.3532   -3.7291   -4.8452 H   0  0  0  0  0  0  0  0  0  0  0  0
   -0.0189   -7.8797   -3.6834 H   0  0  0  0  0  0  0  0  0  0  0  0
   -1.2692   -6.9353   -4.5137 H   0  0  0  0  0  0  0  0  0  0  0  0
    3.2093   -8.2740   -7.7906 H   0  0  0  0  0  0  0  0  0  0  0  0
    2.8077   -8.9874   -6.2073 H   0  0  0  0  0  0  0  0  0  0  0  0
    5.0853  -10.2550   -8.2146 H   0  0  0  0  0  0  0  0  0  0  0  0
    6.1285  -12.1884   -9.3251 H   0  0  0  0  0  0  0  0  0  0  0  0
    4.7979  -14.0324  -10.1807 H   0  0  0  0  0  0  0  0  0  0  0  0
    2.3363  -14.0609   -9.9730 H   0  0  0  0  0  0  0  0  0  0  0  0
   -2.9603  -10.5137   -7.9490 H   0  0  0  0  0  0  0  0  0  0  0  0
   -4.3617  -12.0909   -6.6822 H   0  0  0  0  0  0  0  0  0  0  0  0
    0.4004  -11.5350   -5.5304 H   0  0  0  0  0  0  0  0  0  0  0  0
   -2.3770  -14.7448   -3.0522 H   0  0  0  0  0  0  0  0  0  0  0  0
   -2.6797  -13.0257   -2.6445 H   0  0  0  0  0  0  0  0  0  0  0  0
   -0.9900   -4.3875   -2.2151 H   0  0  0  0  0  0  0  0  0  0  0  0
  1  2  1  0  0  0  0
  1 45  1  0  0  0  0
  1 46  1  0  0  0  0
  1 47  1  0  0  0  0
  2  3  1  0  0  0  0
  2  4  1  0  0  0  0
  3 48  1  0  0  0  0
  3 49  1  0  0  0  0
  3 50  1  0  0  0  0
  4  5  2  0  0  0  0
  4  6  1  0  0  0  0
  6  7  1  0  0  0  0
  6 51  1  0  0  0  0
  6 52  1  0  0  0  0
  7  8  1  0  0  0  0
  7 53  1  0  0  0  0
  7 54  1  0  0  0  0
  8 13  1  0  0  0  0
  8  9  1  0  0  0  0
  8 74  1  0  0  0  0
  9 10  1  0  0  0  0
  9 55  1  0  0  0  0
  9 56  1  0  0  0  0
 10 11  1  0  0  0  0
 10 57  1  0  0  0  0
 10 58  1  0  0  0  0
 11 12  1  0  0  0  0
 11 13  1  0  0  0  0
 11 14  1  0  0  0  0
 13 59  1  0  0  0  0
 13 60  1  0  0  0  0
 14 21  1  0  0  0  0
 14 15  1  0  0  0  0
 15 16  1  0  0  0  0
 15 61  1  0  0  0  0
 15 62  1  0  0  0  0
 16 17  2  0  0  0  0
 16 18  1  0  0  0  0
 18 34  1  0  0  0  0
 18 19  1  0  0  0  0
 19 20  1  0  0  0  0
 19 21  1  0  0  0  0
 19 23  1  0  0  0  0
 21 22  2  0  0  0  0
 23 24  1  0  0  0  0
 23 63  1  0  0  0  0
 23 64  1  0  0  0  0
 24 33  2  0  0  0  0
 24 25  1  0  0  0  0
 25 30  2  0  0  0  0
 25 26  1  0  0  0  0
 26 27  2  0  0  0  0
 26 65  1  0  0  0  0
 27 28  1  0  0  0  0
 27 66  1  0  0  0  0
 28 29  2  0  0  0  0
 28 67  1  0  0  0  0
 29 30  1  0  0  0  0
 29 68  1  0  0  0  0
 30 31  1  0  0  0  0
 31 32  1  0  0  0  0
 31 33  1  0  0  0  0
 33 34  1  0  0  0  0
 34 35  1  0  0  0  0
 34 36  1  0  0  0  0
 36 41  2  0  0  0  0
 36 37  1  0  0  0  0
 37 38  2  0  0  0  0
 37 69  1  0  0  0  0
 38 39  1  0  0  0  0
 38 70  1  0  0  0  0
 39 44  1  0  0  0  0
 39 40  2  0  0  0  0
 40 41  1  0  0  0  0
 40 42  1  0  0  0  0
 41 71  1  0  0  0  0
 42 43  1  0  0  0  0
 43 44  1  0  0  0  0
 43 72  1  0  0  0  0
 43 73  1  0  0  0  0
M  CHG  1   8   1
M  END
$$$$
CHEMBL336248
  -OEChem-07121202283D

 50 54  0     1  0  0  0  0  0999 V2000
   -0.0187    1.5258    0.0104 C   0  0  0  0  0  0  0  0  0  0  0  0
    0.0021   -0.0041    0.0020 C   0  0  0  0  0  0  0  0  0  0  0  0
    0.7421   -0.5109    1.2415 C   0  0  0  0  0  0  0  0  0  0  0  0
    0.7628   -2.0407    1.2331 C   0  0  0  0  0  0  0  0  0  0  0  0
    1.4714   -2.5260    2.4200 N   0  0  0  0  0  0  0  0  0  0  0  0
    2.7995   -2.7558    2.4680 C   0  0  0  0  0  0  0  0  0  0  0  0
    3.6026   -2.5899    1.5751 O   0  0  0  0  0  0  0  0  0  0  0  0
    3.0815   -3.2632    3.8675 C   0  0  1  0  0  0  0  0  0  0  0  0
    3.4768   -4.2789    3.8561 H   0  0  0  0  0  0  0  0  0  0  0  0
    4.0310   -2.2960    4.5847 C   0  0  0  0  0  0  0  0  0  0  0  0
    3.8271   -2.4084    6.0748 C   0  0  0  0  0  0  0  0  0  0  0  0
    4.7406   -1.9937    7.1236 C   0  0  0  0  0  0  0  0  0  0  0  0
    6.0086   -1.4053    7.0938 C   0  0  0  0  0  0  0  0  0  0  0  0
    6.5981   -1.1422    8.3058 C   0  0  0  0  0  0  0  0  0  0  0  0
    5.9762   -1.4412    9.5071 C   0  0  0  0  0  0  0  0  0  0  0  0
    4.7215   -2.0229    9.5652 C   0  0  0  0  0  0  0  0  0  0  0  0
    4.0986   -2.3010    8.3500 C   0  0  0  0  0  0  0  0  0  0  0  0
    2.8897   -2.8574    8.0465 N   0  0  0  0  0  0  0  0  0  0  0  0
    2.2365   -3.1622    8.6956 H   0  0  0  0  0  0  0  0  0  0  0  0
    2.7383   -2.9197    6.6870 C   0  0  0  0  0  0  0  0  0  0  0  0
    1.5434   -3.4834    5.9434 C   0  0  2  0  0  0  0  0  0  0  0  0
    1.4879   -4.5624    6.0874 H   0  0  0  0  0  0  0  0  0  0  0  0
    1.7535   -3.1989    4.5165 N   0  0  0  0  0  0  0  0  0  0  0  0
    0.8802   -2.7911    3.5940 C   0  0  0  0  0  0  0  0  0  0  0  0
   -0.3131   -2.6762    3.7937 O   0  0  0  0  0  0  0  0  0  0  0  0
    0.2755   -2.8308    6.4310 C   0  0  0  0  0  0  0  0  0  0  0  0
   -0.0995   -1.5775    5.9718 C   0  0  0  0  0  0  0  0  0  0  0  0
   -1.2691   -1.0104    6.4414 C   0  0  0  0  0  0  0  0  0  0  0  0
   -2.0238   -1.6470    7.3156 N   0  0  0  0  0  0  0  0  0  0  0  0
   -1.6983   -2.8399    7.7740 C   0  0  0  0  0  0  0  0  0  0  0  0
   -0.5466   -3.4719    7.3450 C   0  0  0  0  0  0  0  0  0  0  0  0
    1.0039    1.9031    0.0027 H   0  0  0  0  0  0  0  0  0  0  0  0
   -0.5459    1.8868   -0.8726 H   0  0  0  0  0  0  0  0  0  0  0  0
   -0.5289    1.8773    0.9072 H   0  0  0  0  0  0  0  0  0  0  0  0
   -1.0205   -0.3814    0.0098 H   0  0  0  0  0  0  0  0  0  0  0  0
    0.5123   -0.3556   -0.8948 H   0  0  0  0  0  0  0  0  0  0  0  0
    1.7647   -0.1336    1.2338 H   0  0  0  0  0  0  0  0  0  0  0  0
    0.2319   -0.1594    2.1383 H   0  0  0  0  0  0  0  0  0  0  0  0
   -0.2598   -2.4180    1.2409 H   0  0  0  0  0  0  0  0  0  0  0  0
    1.2730   -2.3923    0.3363 H   0  0  0  0  0  0  0  0  0  0  0  0
    5.0622   -2.5493    4.3386 H   0  0  0  0  0  0  0  0  0  0  0  0
    3.8205   -1.2755    4.2647 H   0  0  0  0  0  0  0  0  0  0  0  0
    6.5011   -1.1694    6.1620 H   0  0  0  0  0  0  0  0  0  0  0  0
    7.5779   -0.6881    8.3231 H   0  0  0  0  0  0  0  0  0  0  0  0
    6.4882   -1.2128   10.4302 H   0  0  0  0  0  0  0  0  0  0  0  0
    4.2475   -2.2509   10.5084 H   0  0  0  0  0  0  0  0  0  0  0  0
    0.5147   -1.0508    5.2564 H   0  0  0  0  0  0  0  0  0  0  0  0
   -1.5683   -0.0345    6.0887 H   0  0  0  0  0  0  0  0  0  0  0  0
   -2.3414   -3.3303    8.4897 H   0  0  0  0  0  0  0  0  0  0  0  0
   -0.2879   -4.4510    7.7203 H   0  0  0  0  0  0  0  0  0  0  0  0
  1  2  1  0  0  0  0
  1 32  1  0  0  0  0
  1 33  1  0  0  0  0
  1 34  1  0  0  0  0
  2  3  1  0  0  0  0
  2 35  1  0  0  0  0
  2 36  1  0  0  0  0
  3  4  1  0  0  0  0
  3 37  1  0  0  0  0
  3 38  1  0  0  0  0
  4  5  1  0  0  0  0
  4 39  1  0  0  0  0
  4 40  1  0  0  0  0
  5 24  1  0  0  0  0
  5  6  1  0  0  0  0
  6  7  2  0  0  0  0
  6  8  1  0  0  0  0
  8  9  1  0  0  0  0
  8 23  1  0  0  0  0
  8 10  1  0  0  0  0
 10 11  1  0  0  0  0
 10 41  1  0  0  0  0
 10 42  1  0  0  0  0
 11 20  2  0  0  0  0
 11 12  1  0  0  0  0
 12 17  2  0  0  0  0
 12 13  1  0  0  0  0
 13 14  2  0  0  0  0
 13 43  1  0  0  0  0
 14 15  1  0  0  0  0
 14 44  1  0  0  0  0
 15 16  2  0  0  0  0
 15 45  1  0  0  0  0
 16 17  1  0  0  0  0
 16 46  1  0  0  0  0
 17 18  1  0  0  0  0
 18 19  1  0  0  0  0
 18 20  1  0  0  0  0
 20 21  1  0  0  0  0
 21 22  1  0  0  0  0
 21 23  1  0  0  0  0
 21 26  1  0  0  0  0
 23 24  1  0  0  0  0
 24 25  2  0  0  0  0
 26 31  2  0  0  0  0
 26 27  1  0  0  0  0
 27 28  2  0  0  0  0
 27 47  1  0  0  0  0
 28 29  1  0  0  0  0
 28 48  1  0  0  0  0
 29 30  2  0  0  0  0
 30 31  1  0  0  0  0
 30 49  1  0  0  0  0
 31 50  1  0  0  0  0
M  END
$$$$
CHEMBL349359
  -OEChem-07121202283D

 58 64  0     1  0  0  0  0  0999 V2000
   -0.1987    1.2514   -0.4928 C   0  0  0  0  0  0  0  0  0  0  0  0
    0.9675    2.0046   -0.4846 C   0  0  0  0  0  0  0  0  0  0  0  0
    2.1978    1.3922   -0.3932 C   0  0  0  0  0  0  0  0  0  0  0  0
    2.2760    0.0060   -0.3085 C   0  0  0  0  0  0  0  0  0  0  0  0
    1.0908   -0.7541   -0.3173 C   0  0  0  0  0  0  0  0  0  0  0  0
   -0.1456   -0.1111   -0.4104 C   0  0  0  0  0  0  0  0  0  0  0  0
    1.5098   -2.1494   -0.2180 C   0  0  0  0  0  0  0  0  0  0  0  0
    2.8552   -2.1582   -0.1555 C   0  0  0  0  0  0  0  0  0  0  0  0
    3.3280   -0.8786   -0.2101 N   0  0  0  0  0  0  0  0  0  0  0  0
    4.2651   -0.6292   -0.1838 H   0  0  0  0  0  0  0  0  0  0  0  0
    3.6756   -3.4243   -0.0373 C   0  0  2  0  0  0  0  0  0  0  0  0
    2.7717   -4.5601   -0.2882 N   0  0  0  0  0  0  0  0  0  0  0  0
    1.4485   -4.5550    0.3537 C   0  0  0  0  0  0  0  0  0  0  0  0
    0.6343   -3.3753   -0.1923 C   0  0  0  0  0  0  0  0  0  0  0  0
    3.1478   -5.5785   -1.0867 C   0  0  0  0  0  0  0  0  0  0  0  0
    2.3550   -6.4592   -1.3639 O   0  0  0  0  0  0  0  0  0  0  0  0
    4.5128   -5.6255   -1.6216 C   0  0  0  0  0  0  0  0  0  0  0  0
    4.9897   -6.5387   -2.5204 C   0  0  0  0  0  0  0  0  0  0  0  0
    6.3311   -6.2170   -2.7547 C   0  0  0  0  0  0  0  0  0  0  0  0
    6.6188   -5.1226   -1.9911 C   0  0  0  0  0  0  0  0  0  0  0  0
    5.5112   -4.7718   -1.3155 O   0  0  0  0  0  0  0  0  0  0  0  0
    7.9252   -4.4364   -1.9232 C   0  0  0  0  0  0  0  0  0  0  0  0
    8.0821   -3.3263   -1.0917 C   0  0  0  0  0  0  0  0  0  0  0  0
    9.3121   -2.6946   -1.0394 C   0  0  0  0  0  0  0  0  0  0  0  0
   10.3466   -3.1922   -1.8196 C   0  0  0  0  0  0  0  0  0  0  0  0
   10.1218   -4.2968   -2.6216 C   0  0  0  0  0  0  0  0  0  0  0  0
    8.9434   -4.8839   -2.6500 N   0  0  0  0  0  0  0  0  0  0  0  0
    4.2580   -3.5297    1.3486 C   0  0  0  0  0  0  0  0  0  0  0  0
    5.6220   -3.6816    1.5183 C   0  0  0  0  0  0  0  0  0  0  0  0
    6.1607   -3.7743    2.7847 C   0  0  0  0  0  0  0  0  0  0  0  0
    5.3345   -3.7158    3.9045 C   0  0  0  0  0  0  0  0  0  0  0  0
    3.9656   -3.5705    3.7211 C   0  0  0  0  0  0  0  0  0  0  0  0
    3.4307   -3.4690    2.4558 C   0  0  0  0  0  0  0  0  0  0  0  0
    3.3310   -3.5630    5.0984 C   0  0  0  0  0  0  0  0  0  0  0  0
    4.4754   -4.1152    5.9809 C   0  0  0  0  0  0  0  0  0  0  0  0
    5.6512   -3.7740    5.2272 O   0  0  0  0  0  0  0  0  0  0  0  0
   -1.1559    1.7469   -0.5604 H   0  0  0  0  0  0  0  0  0  0  0  0
    0.9094    3.0810   -0.5508 H   0  0  0  0  0  0  0  0  0  0  0  0
    3.0995    1.9867   -0.3878 H   0  0  0  0  0  0  0  0  0  0  0  0
   -1.0575   -0.6897   -0.4168 H   0  0  0  0  0  0  0  0  0  0  0  0
    4.4761   -3.4175   -0.7770 H   0  0  0  0  0  0  0  0  0  0  0  0
    0.9318   -5.4888    0.1318 H   0  0  0  0  0  0  0  0  0  0  0  0
    1.5665   -4.4489    1.4321 H   0  0  0  0  0  0  0  0  0  0  0  0
   -0.2261   -3.1960    0.4525 H   0  0  0  0  0  0  0  0  0  0  0  0
    0.2945   -3.6026   -1.2027 H   0  0  0  0  0  0  0  0  0  0  0  0
    4.4367   -7.3531   -2.9646 H   0  0  0  0  0  0  0  0  0  0  0  0
    7.0102   -6.7363   -3.4147 H   0  0  0  0  0  0  0  0  0  0  0  0
    7.2553   -2.9653   -0.4981 H   0  0  0  0  0  0  0  0  0  0  0  0
    9.4637   -1.8332   -0.4057 H   0  0  0  0  0  0  0  0  0  0  0  0
   11.3182   -2.7210   -1.8010 H   0  0  0  0  0  0  0  0  0  0  0  0
   10.9251   -4.6855   -3.2298 H   0  0  0  0  0  0  0  0  0  0  0  0
    6.2688   -3.7283    0.6547 H   0  0  0  0  0  0  0  0  0  0  0  0
    7.2271   -3.8923    2.9084 H   0  0  0  0  0  0  0  0  0  0  0  0
    2.3654   -3.3458    2.3280 H   0  0  0  0  0  0  0  0  0  0  0  0
    3.0622   -2.5500    5.3979 H   0  0  0  0  0  0  0  0  0  0  0  0
    2.4623   -4.2206    5.1306 H   0  0  0  0  0  0  0  0  0  0  0  0
    4.4842   -3.6238    6.9538 H   0  0  0  0  0  0  0  0  0  0  0  0
    4.3890   -5.1959    6.0937 H   0  0  0  0  0  0  0  0  0  0  0  0
  1  6  2  0  0  0  0
  1  2  1  0  0  0  0
  1 37  1  0  0  0  0
  2  3  2  0  0  0  0
  2 38  1  0  0  0  0
  3  4  1  0  0  0  0
  3 39  1  0  0  0  0
  4  9  1  0  0  0  0
  4  5  2  0  0  0  0
  5  6  1  0  0  0  0
  5  7  1  0  0  0  0
  6 40  1  0  0  0  0
  7 14  1  0  0  0  0
  7  8  2  0  0  0  0
  8  9  1  0  0  0  0
  8 11  1  0  0  0  0
  9 10  1  0  0  0  0
 11 12  1  0  0  0  0
 11 28  1  0  0  0  0
 11 41  1  0  0  0  0
 12 13  1  0  0  0  0
 12 15  1  0  0  0  0
 13 14  1  0  0  0  0
 13 42  1  0  0  0  0
 13 43  1  0  0  0  0
 14 44  1  0  0  0  0
 14 45  1  0  0  0  0
 15 16  2  0  0  0  0
 15 17  1  0  0  0  0
 17 21  1  0  0  0  0
 17 18  2  0  0  0  0
 18 19  1  0  0  0  0
 18 46  1  0  0  0  0
 19 20  2  0  0  0  0
 19 47  1  0  0  0  0
 20 21  1  0  0  0  0
 20 22  1  0  0  0  0
 22 27  2  0  0  0  0
 22 23  1  0  0  0  0
 23 24  2  0  0  0  0
 23 48  1  0  0  0  0
 24 25  1  0  0  0  0
 24 49  1  0  0  0  0
 25 26  2  0  0  0  0
 25 50  1  0  0  0  0
 26 27  1  0  0  0  0
 26 51  1  0  0  0  0
 28 33  2  0  0  0  0
 28 29  1  0  0  0  0
 29 30  2  0  0  0  0
 29 52  1  0  0  0  0
 30 31  1  0  0  0  0
 30 53  1  0  0  0  0
 31 36  1  0  0  0  0
 31 32  2  0  0  0  0
 32 33  1  0  0  0  0
 32 34  1  0  0  0  0
 33 54  1  0  0  0  0
 34 35  1  0  0  0  0
 34 55  1  0  0  0  0
 34 56  1  0  0  0  0
 35 36  1  0  0  0  0
 35 57  1  0  0  0  0
 35 58  1  0  0  0  0
M  END
$$$$
CHEMBL349359
  -OEChem-07121202283D

 58 64  0     1  0  0  0  0  0999 V2000
   -0.6926    0.6937   -0.3080 C   0  0  0  0  0  0  0  0  0  0  0  0
    0.3662    1.5855   -0.4126 C   0  0  0  0  0  0  0  0  0  0  0  0
    1.6673    1.1334   -0.4115 C   0  0  0  0  0  0  0  0  0  0  0  0
    1.9261   -0.2291   -0.3040 C   0  0  0  0  0  0  0  0  0  0  0  0
    0.8492   -1.1300   -0.1975 C   0  0  0  0  0  0  0  0  0  0  0  0
   -0.4618   -0.6485   -0.2017 C   0  0  0  0  0  0  0  0  0  0  0  0
    1.4475   -2.4587   -0.1020 C   0  0  0  0  0  0  0  0  0  0  0  0
    2.7838   -2.2991   -0.1552 C   0  0  0  0  0  0  0  0  0  0  0  0
    3.0857   -0.9729   -0.2742 N   0  0  0  0  0  0  0  0  0  0  0  0
    3.9830   -0.6086   -0.3297 H   0  0  0  0  0  0  0  0  0  0  0  0
    3.7635   -3.4508   -0.0939 C   0  0  1  0  0  0  0  0  0  0  0  0
    3.0084   -4.6509    0.3056 N   0  0  0  0  0  0  0  0  0  0  0  0
    1.7112   -4.9066   -0.3383 C   0  0  0  0  0  0  0  0  0  0  0  0
    0.7387   -3.7810    0.0359 C   0  0  0  0  0  0  0  0  0  0  0  0
    3.4943   -5.4935    1.2385 C   0  0  0  0  0  0  0  0  0  0  0  0
    2.9051   -6.5283    1.4897 O   0  0  0  0  0  0  0  0  0  0  0  0
    4.7332   -5.1634    1.9510 C   0  0  0  0  0  0  0  0  0  0  0  0
    5.3951   -5.9786    2.8265 C   0  0  0  0  0  0  0  0  0  0  0  0
    6.5190   -5.2730    3.2696 C   0  0  0  0  0  0  0  0  0  0  0  0
    6.4985   -4.0577    2.6481 C   0  0  0  0  0  0  0  0  0  0  0  0
    5.4180   -4.0057    1.8504 O   0  0  0  0  0  0  0  0  0  0  0  0
    7.4980   -2.9835    2.8190 C   0  0  0  0  0  0  0  0  0  0  0  0
    7.3503   -1.7828    2.1225 C   0  0  0  0  0  0  0  0  0  0  0  0
    8.2951   -0.7864    2.2935 C   0  0  0  0  0  0  0  0  0  0  0  0
    9.3577   -1.0212    3.1550 C   0  0  0  0  0  0  0  0  0  0  0  0
    9.4427   -2.2348    3.8139 C   0  0  0  0  0  0  0  0  0  0  0  0
    8.5277   -3.1654    3.6386 N   0  0  0  0  0  0  0  0  0  0  0  0
    4.3872   -3.6654   -1.4489 C   0  0  0  0  0  0  0  0  0  0  0  0
    5.7632   -3.6741   -1.5859 C   0  0  0  0  0  0  0  0  0  0  0  0
    6.3392   -3.8743   -2.8231 C   0  0  0  0  0  0  0  0  0  0  0  0
    5.5388   -4.0695   -3.9462 C   0  0  0  0  0  0  0  0  0  0  0  0
    4.1581   -4.0513   -3.7972 C   0  0  0  0  0  0  0  0  0  0  0  0
    3.5851   -3.8602   -2.5592 C   0  0  0  0  0  0  0  0  0  0  0  0
    3.5596   -4.2633   -5.1743 C   0  0  0  0  0  0  0  0  0  0  0  0
    4.7738   -3.9967   -6.0953 C   0  0  0  0  0  0  0  0  0  0  0  0
    5.8919   -4.2939   -5.2416 O   0  0  0  0  0  0  0  0  0  0  0  0
   -1.7069    1.0645   -0.3063 H   0  0  0  0  0  0  0  0  0  0  0  0
    0.1679    2.6439   -0.4960 H   0  0  0  0  0  0  0  0  0  0  0  0
    2.4843    1.8348   -0.4942 H   0  0  0  0  0  0  0  0  0  0  0  0
   -1.2911   -1.3355   -0.1207 H   0  0  0  0  0  0  0  0  0  0  0  0
    4.5388   -3.2388    0.6424 H   0  0  0  0  0  0  0  0  0  0  0  0
    1.8398   -4.9330   -1.4204 H   0  0  0  0  0  0  0  0  0  0  0  0
    1.3145   -5.8614    0.0069 H   0  0  0  0  0  0  0  0  0  0  0  0
    0.4075   -3.9120    1.0661 H   0  0  0  0  0  0  0  0  0  0  0  0
   -0.1223   -3.8053   -0.6321 H   0  0  0  0  0  0  0  0  0  0  0  0
    5.1054   -6.9767    3.1203 H   0  0  0  0  0  0  0  0  0  0  0  0
    7.2622   -5.6234    3.9705 H   0  0  0  0  0  0  0  0  0  0  0  0
    6.5110   -1.6338    1.4595 H   0  0  0  0  0  0  0  0  0  0  0  0
    8.2079    0.1530    1.7679 H   0  0  0  0  0  0  0  0  0  0  0  0
   10.1116   -0.2635    3.3094 H   0  0  0  0  0  0  0  0  0  0  0  0
   10.2688   -2.4199    4.4845 H   0  0  0  0  0  0  0  0  0  0  0  0
    6.3902   -3.5229   -0.7196 H   0  0  0  0  0  0  0  0  0  0  0  0
    7.4147   -3.8802   -2.9213 H   0  0  0  0  0  0  0  0  0  0  0  0
    2.5100   -3.8588   -2.4560 H   0  0  0  0  0  0  0  0  0  0  0  0
    3.2004   -5.2860   -5.2897 H   0  0  0  0  0  0  0  0  0  0  0  0
    2.7605   -3.5473   -5.3662 H   0  0  0  0  0  0  0  0  0  0  0  0
    4.7582   -4.6634   -6.9575 H   0  0  0  0  0  0  0  0  0  0  0  0
    4.7964   -2.9541   -6.4123 H   0  0  0  0  0  0  0  0  0  0  0  0
  1  6  2  0  0  0  0
  1  2  1  0  0  0  0
  1 37  1  0  0  0  0
  2  3  2  0  0  0  0
  2 38  1  0  0  0  0
  3  4  1  0  0  0  0
  3 39  1  0  0  0  0
  4  9  1  0  0  0  0
  4  5  2  0  0  0  0
  5  6  1  0  0  0  0
  5  7  1  0  0  0  0
  6 40  1  0  0  0  0
  7 14  1  0  0  0  0
  7  8  2  0  0  0  0
  8  9  1  0  0  0  0
  8 11  1  0  0  0  0
  9 10  1  0  0  0  0
 11 12  1  0  0  0  0
 11 28  1  0  0  0  0
 11 41  1  0  0  0  0
 12 13  1  0  0  0  0
 12 15  1  0  0  0  0
 13 14  1  0  0  0  0
 13 42  1  0  0  0  0
 13 43  1  0  0  0  0
 14 44  1  0  0  0  0
 14 45  1  0  0  0  0
 15 16  2  0  0  0  0
 15 17  1  0  0  0  0
 17 21  1  0  0  0  0
 17 18  2  0  0  0  0
 18 19  1  0  0  0  0
 18 46  1  0  0  0  0
 19 20  2  0  0  0  0
 19 47  1  0  0  0  0
 20 21  1  0  0  0  0
 20 22  1  0  0  0  0
 22 27  2  0  0  0  0
 22 23  1  0  0  0  0
 23 24  2  0  0  0  0
 23 48  1  0  0  0  0
 24 25  1  0  0  0  0
 24 49  1  0  0  0  0
 25 26  2  0  0  0  0
 25 50  1  0  0  0  0
 26 27  1  0  0  0  0
 26 51  1  0  0  0  0
 28 33  2  0  0  0  0
 28 29  1  0  0  0  0
 29 30  2  0  0  0  0
 29 52  1  0  0  0  0
 30 31  1  0  0  0  0
 30 53  1  0  0  0  0
 31 36  1  0  0  0  0
 31 32  2  0  0  0  0
 32 33  1  0  0  0  0
 32 34  1  0  0  0  0
 33 54  1  0  0  0  0
 34 35  1  0  0  0  0
 34 55  1  0  0  0  0
 34 56  1  0  0  0  0
 35 36  1  0  0  0  0
 35 57  1  0  0  0  0
 35 58  1  0  0  0  0
M  END
$$$$
CHEMBL163890
  -OEChem-07121202283D

 59 65  0     1  0  0  0  0  0999 V2000
   -0.0470    1.3375    0.0206 C   0  0  0  0  0  0  0  0  0  0  0  0
    1.1343    2.0668    0.0165 C   0  0  0  0  0  0  0  0  0  0  0  0
    2.3540    1.4270    0.0007 C   0  0  0  0  0  0  0  0  0  0  0  0
    2.4059    0.0371   -0.0117 C   0  0  0  0  0  0  0  0  0  0  0  0
    1.2053   -0.6987   -0.0077 C   0  0  0  0  0  0  0  0  0  0  0  0
   -0.0197   -0.0281    0.0088 C   0  0  0  0  0  0  0  0  0  0  0  0
    1.5982   -2.1050   -0.0244 C   0  0  0  0  0  0  0  0  0  0  0  0
    2.9444   -2.1429   -0.0348 C   0  0  0  0  0  0  0  0  0  0  0  0
    3.4419   -0.8714   -0.0291 N   0  0  0  0  0  0  0  0  0  0  0  0
    4.3843   -0.6418   -0.0365 H   0  0  0  0  0  0  0  0  0  0  0  0
    3.7417   -3.4290   -0.0456 C   0  0  2  0  0  0  0  0  0  0  0  0
    2.8012   -4.5282   -0.3229 N   0  0  0  0  0  0  0  0  0  0  0  0
    1.5138   -4.5424    0.3879 C   0  0  0  0  0  0  0  0  0  0  0  0
    0.6984   -3.3134   -0.0337 C   0  0  0  0  0  0  0  0  0  0  0  0
    3.1209   -5.5230   -1.2304 C   0  0  0  0  0  0  0  0  0  0  0  0
    4.2927   -5.4790   -1.8478 N   0  0  0  0  0  0  0  0  0  0  0  0
    4.6346   -6.4104   -2.7205 C   0  0  0  0  0  0  0  0  0  0  0  0
    3.7407   -7.4504   -2.9878 C   0  0  0  0  0  0  0  0  0  0  0  0
    2.5156   -7.4605   -2.3161 C   0  0  0  0  0  0  0  0  0  0  0  0
    2.2489   -6.4956   -1.4536 N   0  0  0  0  0  0  0  0  0  0  0  0
    4.0835   -8.5168   -3.9607 C   0  0  0  0  0  0  0  0  0  0  0  0
    5.3124   -8.4937   -4.6178 C   0  0  0  0  0  0  0  0  0  0  0  0
    5.6282   -9.4864   -5.5217 C   0  0  0  0  0  0  0  0  0  0  0  0
    4.7236  -10.5079   -5.7773 C   0  0  0  0  0  0  0  0  0  0  0  0
    3.4988  -10.5335   -5.1243 C   0  0  0  0  0  0  0  0  0  0  0  0
    3.1796   -9.5468   -4.2151 C   0  0  0  0  0  0  0  0  0  0  0  0
    5.0373  -11.4843   -6.6687 O   0  0  0  0  0  0  0  0  0  0  0  0
    4.3934   -3.6390    1.2970 C   0  0  0  0  0  0  0  0  0  0  0  0
    5.7601   -3.8316    1.3823 C   0  0  0  0  0  0  0  0  0  0  0  0
    6.3621   -4.0200    2.6090 C   0  0  0  0  0  0  0  0  0  0  0  0
    5.5976   -4.0180    3.7733 C   0  0  0  0  0  0  0  0  0  0  0  0
    4.2250   -3.8309    3.6741 C   0  0  0  0  0  0  0  0  0  0  0  0
    3.6271   -3.6339    2.4489 C   0  0  0  0  0  0  0  0  0  0  0  0
    3.6640   -3.9010    5.0812 C   0  0  0  0  0  0  0  0  0  0  0  0
    4.8388   -4.5355    5.8627 C   0  0  0  0  0  0  0  0  0  0  0  0
    5.9817   -4.1708    5.0703 O   0  0  0  0  0  0  0  0  0  0  0  0
   -0.9953    1.8541    0.0376 H   0  0  0  0  0  0  0  0  0  0  0  0
    1.0966    3.1462    0.0256 H   0  0  0  0  0  0  0  0  0  0  0  0
    3.2675    2.0030   -0.0025 H   0  0  0  0  0  0  0  0  0  0  0  0
   -0.9433   -0.5880    0.0127 H   0  0  0  0  0  0  0  0  0  0  0  0
    4.5025   -3.3868   -0.8250 H   0  0  0  0  0  0  0  0  0  0  0  0
    0.9657   -5.4492    0.1321 H   0  0  0  0  0  0  0  0  0  0  0  0
    1.6903   -4.5119    1.4630 H   0  0  0  0  0  0  0  0  0  0  0  0
   -0.1230   -3.1625    0.6668 H   0  0  0  0  0  0  0  0  0  0  0  0
    0.3013   -3.4653   -1.0374 H   0  0  0  0  0  0  0  0  0  0  0  0
    5.5911   -6.3681   -3.2202 H   0  0  0  0  0  0  0  0  0  0  0  0
    1.7987   -8.2479   -2.4961 H   0  0  0  0  0  0  0  0  0  0  0  0
    6.0165   -7.6991   -4.4197 H   0  0  0  0  0  0  0  0  0  0  0  0
    6.5802   -9.4689   -6.0315 H   0  0  0  0  0  0  0  0  0  0  0  0
    2.7968  -11.3293   -5.3254 H   0  0  0  0  0  0  0  0  0  0  0  0
    2.2286   -9.5699   -3.7038 H   0  0  0  0  0  0  0  0  0  0  0  0
    5.4854  -12.2461   -6.2762 H   0  0  0  0  0  0  0  0  0  0  0  0
    6.3592   -3.8350    0.4838 H   0  0  0  0  0  0  0  0  0  0  0  0
    7.4301   -4.1692    2.6669 H   0  0  0  0  0  0  0  0  0  0  0  0
    2.5600   -3.4792    2.3872 H   0  0  0  0  0  0  0  0  0  0  0  0
    3.4372   -2.9046    5.4602 H   0  0  0  0  0  0  0  0  0  0  0  0
    2.7818   -4.5402    5.1174 H   0  0  0  0  0  0  0  0  0  0  0  0
    4.9112   -4.1102    6.8636 H   0  0  0  0  0  0  0  0  0  0  0  0
    4.7311   -5.6192    5.9093 H   0  0  0  0  0  0  0  0  0  0  0  0
  1  6  2  0  0  0  0
  1  2  1  0  0  0  0
  1 37  1  0  0  0  0
  2  3  2  0  0  0  0
  2 38  1  0  0  0  0
  3  4  1  0  0  0  0
  3 39  1  0  0  0  0
  4  9  1  0  0  0  0
  4  5  2  0  0  0  0
  5  6  1  0  0  0  0
  5  7  1  0  0  0  0
  6 40  1  0  0  0  0
  7 14  1  0  0  0  0
  7  8  2  0  0  0  0
  8  9  1  0  0  0  0
  8 11  1  0  0  0  0
  9 10  1  0  0  0  0
 11 12  1  0  0  0  0
 11 28  1  0  0  0  0
 11 41  1  0  0  0  0
 12 13  1  0  0  0  0
 12 15  1  0  0  0  0
 13 14  1  0  0  0  0
 13 42  1  0  0  0  0
 13 43  1  0  0  0  0
 14 44  1  0  0  0  0
 14 45  1  0  0  0  0
 15 20  2  0  0  0  0
 15 16  1  0  0  0  0
 16 17  2  0  0  0  0
 17 18  1  0  0  0  0
 17 46  1  0  0  0  0
 18 19  2  0  0  0  0
 18 21  1  0  0  0  0
 19 20  1  0  0  0  0
 19 47  1  0  0  0  0
 21 26  2  0  0  0  0
 21 22  1  0  0  0  0
 22 23  2  0  0  0  0
 22 48  1  0  0  0  0
 23 24  1  0  0  0  0
 23 49  1  0  0  0  0
 24 25  2  0  0  0  0
 24 27  1  0  0  0  0
 25 26  1  0  0  0  0
 25 50  1  0  0  0  0
 26 51  1  0  0  0  0
 27 52  1  0  0  0  0
 28 33  2  0  0  0  0
 28 29  1  0  0  0  0
 29 30  2  0  0  0  0
 29 53  1  0  0  0  0
 30 31  1  0  0  0  0
 30 54  1  0  0  0  0
 31 36  1  0  0  0  0
 31 32  2  0  0  0  0
 32 33  1  0  0  0  0
 32 34  1  0  0  0  0
 33 55  1  0  0  0  0
 34 35  1  0  0  0  0
 34 56  1  0  0  0  0
 34 57  1  0  0  0  0
 35 36  1  0  0  0  0
 35 58  1  0  0  0  0
 35 59  1  0  0  0  0
M  END
$$$$
CHEMBL163890
  -OEChem-07121202283D

 59 65  0     1  0  0  0  0  0999 V2000
   -0.7482    0.6811   -0.2296 C   0  0  0  0  0  0  0  0  0  0  0  0
    0.3033    1.5826   -0.3248 C   0  0  0  0  0  0  0  0  0  0  0  0
    1.6080    1.1411   -0.3288 C   0  0  0  0  0  0  0  0  0  0  0  0
    1.8779   -0.2203   -0.2362 C   0  0  0  0  0  0  0  0  0  0  0  0
    0.8084   -1.1311   -0.1393 C   0  0  0  0  0  0  0  0  0  0  0  0
   -0.5065   -0.6602   -0.1379 C   0  0  0  0  0  0  0  0  0  0  0  0
    1.4175   -2.4557   -0.0583 C   0  0  0  0  0  0  0  0  0  0  0  0
    2.7525   -2.2848   -0.1101 C   0  0  0  0  0  0  0  0  0  0  0  0
    3.0435   -0.9549   -0.2147 N   0  0  0  0  0  0  0  0  0  0  0  0
    3.9378   -0.5827   -0.2665 H   0  0  0  0  0  0  0  0  0  0  0  0
    3.7416   -3.4290   -0.0614 C   0  0  1  0  0  0  0  0  0  0  0  0
    2.9964   -4.6394    0.3252 N   0  0  0  0  0  0  0  0  0  0  0  0
    1.7011   -4.8988   -0.3211 C   0  0  0  0  0  0  0  0  0  0  0  0
    0.7195   -3.7853    0.0655 C   0  0  0  0  0  0  0  0  0  0  0  0
    3.5031   -5.5114    1.2729 C   0  0  0  0  0  0  0  0  0  0  0  0
    4.6714   -5.2414    1.8371 N   0  0  0  0  0  0  0  0  0  0  0  0
    5.1881   -6.0491    2.7462 C   0  0  0  0  0  0  0  0  0  0  0  0
    4.4842   -7.2001    3.1096 C   0  0  0  0  0  0  0  0  0  0  0  0
    3.2560   -7.4487    2.4915 C   0  0  0  0  0  0  0  0  0  0  0  0
    2.8037   -6.5900    1.5947 N   0  0  0  0  0  0  0  0  0  0  0  0
    5.0273   -8.1349    4.1256 C   0  0  0  0  0  0  0  0  0  0  0  0
    6.2517   -7.8684    4.7359 C   0  0  0  0  0  0  0  0  0  0  0  0
    6.7541   -8.7393    5.6800 C   0  0  0  0  0  0  0  0  0  0  0  0
    6.0415   -9.8803    6.0227 C   0  0  0  0  0  0  0  0  0  0  0  0
    4.8218  -10.1484    5.4166 C   0  0  0  0  0  0  0  0  0  0  0  0
    4.3115   -9.2783    4.4759 C   0  0  0  0  0  0  0  0  0  0  0  0
    6.5393  -10.7367    6.9530 O   0  0  0  0  0  0  0  0  0  0  0  0
    4.3665   -3.6238   -1.4188 C   0  0  0  0  0  0  0  0  0  0  0  0
    5.7425   -3.6201   -1.5562 C   0  0  0  0  0  0  0  0  0  0  0  0
    6.3197   -3.8022   -2.7956 C   0  0  0  0  0  0  0  0  0  0  0  0
    5.5206   -3.9915   -3.9206 C   0  0  0  0  0  0  0  0  0  0  0  0
    4.1398   -3.9859   -3.7711 C   0  0  0  0  0  0  0  0  0  0  0  0
    3.5657   -3.8129   -2.5311 C   0  0  0  0  0  0  0  0  0  0  0  0
    3.5427   -4.1876   -5.1504 C   0  0  0  0  0  0  0  0  0  0  0  0
    4.7544   -3.9012   -6.0686 C   0  0  0  0  0  0  0  0  0  0  0  0
    5.8750   -4.1989   -5.2185 O   0  0  0  0  0  0  0  0  0  0  0  0
   -1.7655    1.0436   -0.2236 H   0  0  0  0  0  0  0  0  0  0  0  0
    0.0963    2.6402   -0.3967 H   0  0  0  0  0  0  0  0  0  0  0  0
    2.4193    1.8500   -0.4041 H   0  0  0  0  0  0  0  0  0  0  0  0
   -1.3301   -1.3548   -0.0641 H   0  0  0  0  0  0  0  0  0  0  0  0
    4.5154   -3.2186    0.6769 H   0  0  0  0  0  0  0  0  0  0  0  0
    1.8296   -4.9124   -1.4034 H   0  0  0  0  0  0  0  0  0  0  0  0
    1.3123   -5.8604    0.0138 H   0  0  0  0  0  0  0  0  0  0  0  0
    0.3898   -3.9301    1.0943 H   0  0  0  0  0  0  0  0  0  0  0  0
   -0.1414   -3.8093   -0.6025 H   0  0  0  0  0  0  0  0  0  0  0  0
    6.1409   -5.8231    3.2017 H   0  0  0  0  0  0  0  0  0  0  0  0
    2.6827   -8.3278    2.7460 H   0  0  0  0  0  0  0  0  0  0  0  0
    6.8067   -6.9810    4.4695 H   0  0  0  0  0  0  0  0  0  0  0  0
    7.7029   -8.5335    6.1530 H   0  0  0  0  0  0  0  0  0  0  0  0
    4.2698  -11.0371    5.6849 H   0  0  0  0  0  0  0  0  0  0  0  0
    3.3602   -9.4849    4.0082 H   0  0  0  0  0  0  0  0  0  0  0  0
    6.2683  -10.5343    7.8589 H   0  0  0  0  0  0  0  0  0  0  0  0
    6.3685   -3.4734   -0.6885 H   0  0  0  0  0  0  0  0  0  0  0  0
    7.3952   -3.7985   -2.8941 H   0  0  0  0  0  0  0  0  0  0  0  0
    2.4907   -3.8211   -2.4276 H   0  0  0  0  0  0  0  0  0  0  0  0
    3.1915   -5.2117   -5.2769 H   0  0  0  0  0  0  0  0  0  0  0  0
    2.7378   -3.4759   -5.3343 H   0  0  0  0  0  0  0  0  0  0  0  0
    4.7439   -4.5586   -6.9381 H   0  0  0  0  0  0  0  0  0  0  0  0
    4.7686   -2.8551   -6.3742 H   0  0  0  0  0  0  0  0  0  0  0  0
  1  6  2  0  0  0  0
  1  2  1  0  0  0  0
  1 37  1  0  0  0  0
  2  3  2  0  0  0  0
  2 38  1  0  0  0  0
  3  4  1  0  0  0  0
  3 39  1  0  0  0  0
  4  9  1  0  0  0  0
  4  5  2  0  0  0  0
  5  6  1  0  0  0  0
  5  7  1  0  0  0  0
  6 40  1  0  0  0  0
  7 14  1  0  0  0  0
  7  8  2  0  0  0  0
  8  9  1  0  0  0  0
  8 11  1  0  0  0  0
  9 10  1  0  0  0  0
 11 12  1  0  0  0  0
 11 28  1  0  0  0  0
 11 41  1  0  0  0  0
 12 13  1  0  0  0  0
 12 15  1  0  0  0  0
 13 14  1  0  0  0  0
 13 42  1  0  0  0  0
 13 43  1  0  0  0  0
 14 44  1  0  0  0  0
 14 45  1  0  0  0  0
 15 20  2  0  0  0  0
 15 16  1  0  0  0  0
 16 17  2  0  0  0  0
 17 18  1  0  0  0  0
 17 46  1  0  0  0  0
 18 19  2  0  0  0  0
 18 21  1  0  0  0  0
 19 20  1  0  0  0  0
 19 47  1  0  0  0  0
 21 26  2  0  0  0  0
 21 22  1  0  0  0  0
 22 23  2  0  0  0  0
 22 48  1  0  0  0  0
 23 24  1  0  0  0  0
 23 49  1  0  0  0  0
 24 25  2  0  0  0  0
 24 27  1  0  0  0  0
 25 26  1  0  0  0  0
 25 50  1  0  0  0  0
 26 51  1  0  0  0  0
 27 52  1  0  0  0  0
 28 33  2  0  0  0  0
 28 29  1  0  0  0  0
 29 30  2  0  0  0  0
 29 53  1  0  0  0  0
 30 31  1  0  0  0  0
 30 54  1  0  0  0  0
 31 36  1  0  0  0  0
 31 32  2  0  0  0  0
 32 33  1  0  0  0  0
 32 34  1  0  0  0  0
 33 55  1  0  0  0  0
 34 35  1  0  0  0  0
 34 56  1  0  0  0  0
 34 57  1  0  0  0  0
 35 36  1  0  0  0  0
 35 58  1  0  0  0  0
 35 59  1  0  0  0  0
M  END
$$$$
CHEMBL30936
  -OEChem-07121202283D

 64 70  0     1  0  0  0  0  0999 V2000
   -0.2374    1.1659    0.2459 C   0  0  0  0  0  0  0  0  0  0  0  0
    0.8882    1.9729    0.2738 C   0  0  0  0  0  0  0  0  0  0  0  0
    2.1706    1.4540    0.2285 C   0  0  0  0  0  0  0  0  0  0  0  0
    2.2880    0.0677    0.1521 C   0  0  0  0  0  0  0  0  0  0  0  0
    1.1318   -0.7537    0.1227 C   0  0  0  0  0  0  0  0  0  0  0  0
   -0.1522   -0.2024    0.1707 C   0  0  0  0  0  0  0  0  0  0  0  0
    1.6121   -2.1181    0.0402 C   0  0  0  0  0  0  0  0  0  0  0  0
    2.9614   -2.0616    0.0242 C   0  0  0  0  0  0  0  0  0  0  0  0
    3.3740   -0.7575    0.0940 N   0  0  0  0  0  0  0  0  0  0  0  0
    4.2987   -0.4643    0.1011 H   0  0  0  0  0  0  0  0  0  0  0  0
    3.8472   -3.2835   -0.0649 C   0  0  2  0  0  0  0  0  0  0  0  0
    4.3051   -3.3376   -1.0526 H   0  0  0  0  0  0  0  0  0  0  0  0
    2.9920   -4.4687    0.1577 N   0  0  0  0  0  0  0  0  0  0  0  0
    1.7051   -4.5223   -0.5346 C   0  0  2  0  0  0  0  0  0  0  0  0
    1.8731   -4.3771   -1.6017 H   0  0  0  0  0  0  0  0  0  0  0  0
    0.8064   -3.3907   -0.0162 C   0  0  0  0  0  0  0  0  0  0  0  0
    1.0101   -5.8294   -0.3288 C   0  0  0  0  0  0  0  0  0  0  0  0
   -0.0244   -6.0235   -0.9313 O   0  0  0  0  0  0  0  0  0  0  0  0
    1.4547   -6.7945    0.4737 N   0  0  0  0  0  0  0  0  0  0  0  0
    2.6795   -6.6995    1.2504 C   0  0  0  0  0  0  0  0  0  0  0  0
    3.4213   -5.4330    0.9745 C   0  0  0  0  0  0  0  0  0  0  0  0
    4.4727   -5.2575    1.5530 O   0  0  0  0  0  0  0  0  0  0  0  0
    0.6634   -8.0228    0.5803 C   0  0  0  0  0  0  0  0  0  0  0  0
    1.1281   -9.0225   -0.4807 C   0  0  0  0  0  0  0  0  0  0  0  0
    0.3346  -10.2541   -0.3739 N   0  0  0  0  0  0  0  0  0  0  0  0
    0.6065  -10.9477    0.8935 C   0  0  0  0  0  0  0  0  0  0  0  0
   -0.2827  -12.1903    0.9899 C   0  0  0  0  0  0  0  0  0  0  0  0
   -0.0488  -13.0270   -0.1461 O   0  0  0  0  0  0  0  0  0  0  0  0
   -0.3044  -12.3835   -1.3974 C   0  0  0  0  0  0  0  0  0  0  0  0
    0.5845  -11.1428   -1.5181 C   0  0  0  0  0  0  0  0  0  0  0  0
    4.9185   -3.2175    0.9929 C   0  0  0  0  0  0  0  0  0  0  0  0
    6.2447   -3.3922    0.6433 C   0  0  0  0  0  0  0  0  0  0  0  0
    7.2311   -3.3320    1.6099 C   0  0  0  0  0  0  0  0  0  0  0  0
    6.8923   -3.0967    2.9326 C   0  0  0  0  0  0  0  0  0  0  0  0
    5.5564   -2.9208    3.2847 C   0  0  0  0  0  0  0  0  0  0  0  0
    4.5737   -2.9767    2.3097 C   0  0  0  0  0  0  0  0  0  0  0  0
    5.4847   -2.7062    4.6308 O   0  0  0  0  0  0  0  0  0  0  0  0
    6.7454   -3.1578    5.1598 C   0  0  0  0  0  0  0  0  0  0  0  0
    7.6575   -2.9923    4.0581 O   0  0  0  0  0  0  0  0  0  0  0  0
   -1.2129    1.6275    0.2892 H   0  0  0  0  0  0  0  0  0  0  0  0
    0.7608    3.0438    0.3326 H   0  0  0  0  0  0  0  0  0  0  0  0
    3.0401    2.0942    0.2509 H   0  0  0  0  0  0  0  0  0  0  0  0
   -1.0354   -0.8236    0.1495 H   0  0  0  0  0  0  0  0  0  0  0  0
    0.4453   -3.6391    0.9818 H   0  0  0  0  0  0  0  0  0  0  0  0
   -0.0396   -3.2579   -0.6905 H   0  0  0  0  0  0  0  0  0  0  0  0
    2.4316   -6.7519    2.3105 H   0  0  0  0  0  0  0  0  0  0  0  0
    3.3254   -7.5403    0.9974 H   0  0  0  0  0  0  0  0  0  0  0  0
    0.7972   -8.4564    1.5713 H   0  0  0  0  0  0  0  0  0  0  0  0
   -0.3902   -7.7910    0.4243 H   0  0  0  0  0  0  0  0  0  0  0  0
    0.9943   -8.5889   -1.4718 H   0  0  0  0  0  0  0  0  0  0  0  0
    2.1816   -9.2544   -0.3248 H   0  0  0  0  0  0  0  0  0  0  0  0
    1.6542  -11.2463    0.9276 H   0  0  0  0  0  0  0  0  0  0  0  0
    0.3904  -10.2800    1.7275 H   0  0  0  0  0  0  0  0  0  0  0  0
   -0.0440  -12.7388    1.9012 H   0  0  0  0  0  0  0  0  0  0  0  0
   -1.3297  -11.8880    1.0100 H   0  0  0  0  0  0  0  0  0  0  0  0
   -0.0814  -13.0716   -2.2129 H   0  0  0  0  0  0  0  0  0  0  0  0
   -1.3520  -12.0868   -1.4469 H   0  0  0  0  0  0  0  0  0  0  0  0
    0.3524  -10.6174   -2.4445 H   0  0  0  0  0  0  0  0  0  0  0  0
    1.6319  -11.4445   -1.5226 H   0  0  0  0  0  0  0  0  0  0  0  0
    6.5106   -3.5765   -0.3871 H   0  0  0  0  0  0  0  0  0  0  0  0
    8.2662   -3.4689    1.3340 H   0  0  0  0  0  0  0  0  0  0  0  0
    3.5373   -2.8361    2.5792 H   0  0  0  0  0  0  0  0  0  0  0  0
    7.0495   -2.5402    6.0049 H   0  0  0  0  0  0  0  0  0  0  0  0
    6.6845   -4.2060    5.4525 H   0  0  0  0  0  0  0  0  0  0  0  0
  1  6  2  0  0  0  0
  1  2  1  0  0  0  0
  1 40  1  0  0  0  0
  2  3  2  0  0  0  0
  2 41  1  0  0  0  0
  3  4  1  0  0  0  0
  3 42  1  0  0  0  0
  4  9  1  0  0  0  0
  4  5  2  0  0  0  0
  5  6  1  0  0  0  0
  5  7  1  0  0  0  0
  6 43  1  0  0  0  0
  7 16  1  0  0  0  0
  7  8  2  0  0  0  0
  8  9  1  0  0  0  0
  8 11  1  0  0  0  0
  9 10  1  0  0  0  0
 11 12  1  0  0  0  0
 11 13  1  0  0  0  0
 11 31  1  0  0  0  0
 13 21  1  0  0  0  0
 13 14  1  0  0  0  0
 14 15  1  0  0  0  0
 14 16  1  0  0  0  0
 14 17  1  0  0  0  0
 16 44  1  0  0  0  0
 16 45  1  0  0  0  0
 17 18  2  0  0  0  0
 17 19  1  0  0  0  0
 19 20  1  0  0  0  0
 19 23  1  0  0  0  0
 20 21  1  0  0  0  0
 20 46  1  0  0  0  0
 20 47  1  0  0  0  0
 21 22  2  0  0  0  0
 23 24  1  0  0  0  0
 23 48  1  0  0  0  0
 23 49  1  0  0  0  0
 24 25  1  0  0  0  0
 24 50  1  0  0  0  0
 24 51  1  0  0  0  0
 25 30  1  0  0  0  0
 25 26  1  0  0  0  0
 26 27  1  0  0  0  0
 26 52  1  0  0  0  0
 26 53  1  0  0  0  0
 27 28  1  0  0  0  0
 27 54  1  0  0  0  0
 27 55  1  0  0  0  0
 28 29  1  0  0  0  0
 29 30  1  0  0  0  0
 29 56  1  0  0  0  0
 29 57  1  0  0  0  0
 30 58  1  0  0  0  0
 30 59  1  0  0  0  0
 31 36  2  0  0  0  0
 31 32  1  0  0  0  0
 32 33  2  0  0  0  0
 32 60  1  0  0  0  0
 33 34  1  0  0  0  0
 33 61  1  0  0  0  0
 34 39  1  0  0  0  0
 34 35  2  0  0  0  0
 35 36  1  0  0  0  0
 35 37  1  0  0  0  0
 36 62  1  0  0  0  0
 37 38  1  0  0  0  0
 38 39  1  0  0  0  0
 38 63  1  0  0  0  0
 38 64  1  0  0  0  0
M  END
$$$$
CHEMBL30936
  -OEChem-07121202283D

 65 71  0     1  0  0  0  0  0999 V2000
   -0.2374    1.1659    0.2459 C   0  0  0  0  0  0  0  0  0  0  0  0
    0.8882    1.9729    0.2738 C   0  0  0  0  0  0  0  0  0  0  0  0
    2.1706    1.4540    0.2285 C   0  0  0  0  0  0  0  0  0  0  0  0
    2.2880    0.0677    0.1521 C   0  0  0  0  0  0  0  0  0  0  0  0
    1.1318   -0.7537    0.1227 C   0  0  0  0  0  0  0  0  0  0  0  0
   -0.1522   -0.2024    0.1707 C   0  0  0  0  0  0  0  0  0  0  0  0
    1.6121   -2.1181    0.0402 C   0  0  0  0  0  0  0  0  0  0  0  0
    2.9614   -2.0616    0.0242 C   0  0  0  0  0  0  0  0  0  0  0  0
    3.3740   -0.7575    0.0940 N   0  0  0  0  0  0  0  0  0  0  0  0
    4.2987   -0.4643    0.1011 H   0  0  0  0  0  0  0  0  0  0  0  0
    3.8472   -3.2835   -0.0649 C   0  0  2  0  0  0  0  0  0  0  0  0
    4.3051   -3.3376   -1.0526 H   0  0  0  0  0  0  0  0  0  0  0  0
    2.9920   -4.4687    0.1577 N   0  0  0  0  0  0  0  0  0  0  0  0
    1.7051   -4.5223   -0.5346 C   0  0  2  0  0  0  0  0  0  0  0  0
    1.8731   -4.3771   -1.6017 H   0  0  0  0  0  0  0  0  0  0  0  0
    0.8064   -3.3907   -0.0162 C   0  0  0  0  0  0  0  0  0  0  0  0
    1.0101   -5.8294   -0.3288 C   0  0  0  0  0  0  0  0  0  0  0  0
   -0.0244   -6.0235   -0.9313 O   0  0  0  0  0  0  0  0  0  0  0  0
    1.4547   -6.7945    0.4737 N   0  0  0  0  0  0  0  0  0  0  0  0
    2.6795   -6.6995    1.2504 C   0  0  0  0  0  0  0  0  0  0  0  0
    3.4213   -5.4330    0.9745 C   0  0  0  0  0  0  0  0  0  0  0  0
    4.4727   -5.2575    1.5530 O   0  0  0  0  0  0  0  0  0  0  0  0
    0.6634   -8.0228    0.5803 C   0  0  0  0  0  0  0  0  0  0  0  0
    1.1281   -9.0225   -0.4807 C   0  0  0  0  0  0  0  0  0  0  0  0
    0.3346  -10.2541   -0.3739 N   0  3  0  0  0  0  0  0  0  0  0  0
    0.6079  -10.9027    0.9160 C   0  0  0  0  0  0  0  0  0  0  0  0
   -0.2201  -12.1855    1.0250 C   0  0  0  0  0  0  0  0  0  0  0  0
    0.0963  -13.0457   -0.0731 O   0  0  0  0  0  0  0  0  0  0  0  0
   -0.1307  -12.4494   -1.3532 C   0  0  0  0  0  0  0  0  0  0  0  0
    0.6975  -11.1671   -1.4666 C   0  0  0  0  0  0  0  0  0  0  0  0
    4.9185   -3.2175    0.9929 C   0  0  0  0  0  0  0  0  0  0  0  0
    6.2447   -3.3922    0.6433 C   0  0  0  0  0  0  0  0  0  0  0  0
    7.2311   -3.3320    1.6099 C   0  0  0  0  0  0  0  0  0  0  0  0
    6.8923   -3.0967    2.9326 C   0  0  0  0  0  0  0  0  0  0  0  0
    5.5564   -2.9208    3.2847 C   0  0  0  0  0  0  0  0  0  0  0  0
    4.5737   -2.9767    2.3097 C   0  0  0  0  0  0  0  0  0  0  0  0
    5.4847   -2.7062    4.6308 O   0  0  0  0  0  0  0  0  0  0  0  0
    6.7454   -3.1578    5.1598 C   0  0  0  0  0  0  0  0  0  0  0  0
    7.6575   -2.9923    4.0581 O   0  0  0  0  0  0  0  0  0  0  0  0
   -1.2129    1.6275    0.2892 H   0  0  0  0  0  0  0  0  0  0  0  0
    0.7608    3.0438    0.3326 H   0  0  0  0  0  0  0  0  0  0  0  0
    3.0401    2.0942    0.2509 H   0  0  0  0  0  0  0  0  0  0  0  0
   -1.0354   -0.8236    0.1495 H   0  0  0  0  0  0  0  0  0  0  0  0
    0.4453   -3.6391    0.9818 H   0  0  0  0  0  0  0  0  0  0  0  0
   -0.0396   -3.2579   -0.6905 H   0  0  0  0  0  0  0  0  0  0  0  0
    2.4316   -6.7519    2.3105 H   0  0  0  0  0  0  0  0  0  0  0  0
    3.3254   -7.5403    0.9974 H   0  0  0  0  0  0  0  0  0  0  0  0
    0.7972   -8.4564    1.5713 H   0  0  0  0  0  0  0  0  0  0  0  0
   -0.3902   -7.7910    0.4243 H   0  0  0  0  0  0  0  0  0  0  0  0
    0.9943   -8.5889   -1.4718 H   0  0  0  0  0  0  0  0  0  0  0  0
    2.1816   -9.2544   -0.3248 H   0  0  0  0  0  0  0  0  0  0  0  0
    1.6680  -11.1474    0.9826 H   0  0  0  0  0  0  0  0  0  0  0  0
    0.3389  -10.2263    1.7273 H   0  0  0  0  0  0  0  0  0  0  0  0
    0.0131  -12.6908    1.9622 H   0  0  0  0  0  0  0  0  0  0  0  0
   -1.2812  -11.9372    0.9988 H   0  0  0  0  0  0  0  0  0  0  0  0
    0.1672  -13.1457   -2.1371 H   0  0  0  0  0  0  0  0  0  0  0  0
   -1.1887  -12.2102   -1.4608 H   0  0  0  0  0  0  0  0  0  0  0  0
    0.4950  -10.6870   -2.4239 H   0  0  0  0  0  0  0  0  0  0  0  0
    1.7575  -11.4117   -1.3991 H   0  0  0  0  0  0  0  0  0  0  0  0
    6.5106   -3.5765   -0.3871 H   0  0  0  0  0  0  0  0  0  0  0  0
    8.2662   -3.4689    1.3340 H   0  0  0  0  0  0  0  0  0  0  0  0
    3.5373   -2.8361    2.5792 H   0  0  0  0  0  0  0  0  0  0  0  0
    7.0495   -2.5402    6.0049 H   0  0  0  0  0  0  0  0  0  0  0  0
    6.6845   -4.2060    5.4525 H   0  0  0  0  0  0  0  0  0  0  0  0
   -0.6469  -10.0285   -0.4359 H   0  0  0  0  0  0  0  0  0  0  0  0
  1  6  2  0  0  0  0
  1  2  1  0  0  0  0
  1 40  1  0  0  0  0
  2  3  2  0  0  0  0
  2 41  1  0  0  0  0
  3  4  1  0  0  0  0
  3 42  1  0  0  0  0
  4  9  1  0  0  0  0
  4  5  2  0  0  0  0
  5  6  1  0  0  0  0
  5  7  1  0  0  0  0
  6 43  1  0  0  0  0
  7 16  1  0  0  0  0
  7  8  2  0  0  0  0
  8  9  1  0  0  0  0
  8 11  1  0  0  0  0
  9 10  1  0  0  0  0
 11 12  1  0  0  0  0
 11 13  1  0  0  0  0
 11 31  1  0  0  0  0
 13 21  1  0  0  0  0
 13 14  1  0  0  0  0
 14 15  1  0  0  0  0
 14 16  1  0  0  0  0
 14 17  1  0  0  0  0
 16 44  1  0  0  0  0
 16 45  1  0  0  0  0
 17 18  2  0  0  0  0
 17 19  1  0  0  0  0
 19 20  1  0  0  0  0
 19 23  1  0  0  0  0
 20 21  1  0  0  0  0
 20 46  1  0  0  0  0
 20 47  1  0  0  0  0
 21 22  2  0  0  0  0
 23 24  1  0  0  0  0
 23 48  1  0  0  0  0
 23 49  1  0  0  0  0
 24 25  1  0  0  0  0
 24 50  1  0  0  0  0
 24 51  1  0  0  0  0
 25 30  1  0  0  0  0
 25 26  1  0  0  0  0
 25 65  1  0  0  0  0
 26 27  1  0  0  0  0
 26 52  1  0  0  0  0
 26 53  1  0  0  0  0
 27 28  1  0  0  0  0
 27 54  1  0  0  0  0
 27 55  1  0  0  0  0
 28 29  1  0  0  0  0
 29 30  1  0  0  0  0
 29 56  1  0  0  0  0
 29 57  1  0  0  0  0
 30 58  1  0  0  0  0
 30 59  1  0  0  0  0
 31 36  2  0  0  0  0
 31 32  1  0  0  0  0
 32 33  2  0  0  0  0
 32 60  1  0  0  0  0
 33 34  1  0  0  0  0
 33 61  1  0  0  0  0
 34 39  1  0  0  0  0
 34 35  2  0  0  0  0
 35 36  1  0  0  0  0
 35 37  1  0  0  0  0
 36 62  1  0  0  0  0
 37 38  1  0  0  0  0
 38 39  1  0  0  0  0
 38 63  1  0  0  0  0
 38 64  1  0  0  0  0
M  CHG  1  25   1
M  END
$$$$
CHEMBL377563
  -OEChem-07121202283D

 45 49  0     0  0  0  0  0  0999 V2000
   -0.0184    1.5028    0.0103 C   0  0  0  0  0  0  0  0  0  0  0  0
    0.0021   -0.0041    0.0020 C   0  0  0  0  0  0  0  0  0  0  0  0
   -1.2118   -0.7183    0.0040 C   0  0  0  0  0  0  0  0  0  0  0  0
   -2.5168   -0.0583    0.0133 C   0  0  0  0  0  0  0  0  0  0  0  0
   -2.9382    1.2500    0.0223 C   0  0  0  0  0  0  0  0  0  0  0  0
   -4.3391    1.2421    0.0285 C   0  0  0  0  0  0  0  0  0  0  0  0
   -4.7543   -0.0113    0.0236 N   0  0  0  0  0  0  0  0  0  0  0  0
   -3.6395   -0.8573    0.0140 N   0  0  0  0  0  0  0  0  0  0  0  0
   -3.5025   -2.2148    0.0060 C   0  0  0  0  0  0  0  0  0  0  0  0
   -2.3459   -2.8077   -0.0019 N   0  0  0  0  0  0  0  0  0  0  0  0
   -1.1897   -2.1243   -0.0038 C   0  0  0  0  0  0  0  0  0  0  0  0
    0.1123   -2.7930   -0.0132 C   0  0  0  0  0  0  0  0  0  0  0  0
    0.1898   -4.0099   -0.0206 O   0  0  0  0  0  0  0  0  0  0  0  0
    1.2261   -2.0282   -0.0140 N   0  0  0  0  0  0  0  0  0  0  0  0
    1.1425   -0.6340   -0.0123 N   0  0  0  0  0  0  0  0  0  0  0  0
    2.5423   -2.6715   -0.0228 C   0  0  0  0  0  0  0  0  0  0  0  0
    2.9876   -2.8847   -1.4467 C   0  0  0  0  0  0  0  0  0  0  0  0
    2.6613   -4.0557   -2.1048 C   0  0  0  0  0  0  0  0  0  0  0  0
    3.0697   -4.2514   -3.4109 C   0  0  0  0  0  0  0  0  0  0  0  0
    3.8041   -3.2758   -4.0589 C   0  0  0  0  0  0  0  0  0  0  0  0
    4.1296   -2.1045   -3.4010 C   0  0  0  0  0  0  0  0  0  0  0  0
    3.7175   -1.9070   -2.0964 C   0  0  0  0  0  0  0  0  0  0  0  0
   -4.7472   -3.0643    0.0070 C   0  0  0  0  0  0  0  0  0  0  0  0
   -5.2116    2.4432    0.0396 C   0  0  0  0  0  0  0  0  0  0  0  0
   -6.6738    2.4739    0.1542 C   0  0  0  0  0  0  0  0  0  0  0  0
   -7.0215    3.7715    0.1190 C   0  0  0  0  0  0  0  0  0  0  0  0
   -5.9131    4.5171   -0.0050 O   0  0  0  0  0  0  0  0  0  0  0  0
   -4.8208    3.7405   -0.0482 C   0  0  0  0  0  0  0  0  0  0  0  0
    1.0042    1.8801    0.0026 H   0  0  0  0  0  0  0  0  0  0  0  0
   -0.5455    1.8639   -0.8728 H   0  0  0  0  0  0  0  0  0  0  0  0
   -0.5286    1.8543    0.9071 H   0  0  0  0  0  0  0  0  0  0  0  0
   -2.3047    2.1247    0.0245 H   0  0  0  0  0  0  0  0  0  0  0  0
    3.2616   -2.0340    0.4912 H   0  0  0  0  0  0  0  0  0  0  0  0
    2.4801   -3.6332    0.4863 H   0  0  0  0  0  0  0  0  0  0  0  0
    2.0875   -4.8179   -1.5986 H   0  0  0  0  0  0  0  0  0  0  0  0
    2.8154   -5.1666   -3.9249 H   0  0  0  0  0  0  0  0  0  0  0  0
    4.1238   -3.4290   -5.0791 H   0  0  0  0  0  0  0  0  0  0  0  0
    4.7036   -1.3424   -3.9072 H   0  0  0  0  0  0  0  0  0  0  0  0
    3.9686   -0.9903   -1.5836 H   0  0  0  0  0  0  0  0  0  0  0  0
   -5.0519   -3.2635   -1.0204 H   0  0  0  0  0  0  0  0  0  0  0  0
   -4.5434   -4.0070    0.5148 H   0  0  0  0  0  0  0  0  0  0  0  0
   -5.5467   -2.5368    0.5272 H   0  0  0  0  0  0  0  0  0  0  0  0
   -7.3362    1.6260    0.2473 H   0  0  0  0  0  0  0  0  0  0  0  0
   -8.0302    4.1525    0.1803 H   0  0  0  0  0  0  0  0  0  0  0  0
   -3.8024    4.0881   -0.1402 H   0  0  0  0  0  0  0  0  0  0  0  0
  1  2  1  0  0  0  0
  1 29  1  0  0  0  0
  1 30  1  0  0  0  0
  1 31  1  0  0  0  0
  2 15  2  0  0  0  0
  2  3  1  0  0  0  0
  3 11  2  0  0  0  0
  3  4  1  0  0  0  0
  4  8  1  0  0  0  0
  4  5  2  0  0  0  0
  5  6  1  0  0  0  0
  5 32  1  0  0  0  0
  6  7  2  0  0  0  0
  6 24  1  0  0  0  0
  7  8  1  0  0  0  0
  8  9  1  0  0  0  0
  9 10  2  0  0  0  0
  9 23  1  0  0  0  0
 10 11  1  0  0  0  0
 11 12  1  0  0  0  0
 12 13  2  0  0  0  0
 12 14  1  0  0  0  0
 14 15  1  0  0  0  0
 14 16  1  0  0  0  0
 16 17  1  0  0  0  0
 16 33  1  0  0  0  0
 16 34  1  0  0  0  0
 17 22  2  0  0  0  0
 17 18  1  0  0  0  0
 18 19  2  0  0  0  0
 18 35  1  0  0  0  0
 19 20  1  0  0  0  0
 19 36  1  0  0  0  0
 20 21  2  0  0  0  0
 20 37  1  0  0  0  0
 21 22  1  0  0  0  0
 21 38  1  0  0  0  0
 22 39  1  0  0  0  0
 23 40  1  0  0  0  0
 23 41  1  0  0  0  0
 23 42  1  0  0  0  0
 24 28  2  0  0  0  0
 24 25  1  0  0  0  0
 25 26  2  0  0  0  0
 25 43  1  0  0  0  0
 26 27  1  0  0  0  0
 26 44  1  0  0  0  0
 27 28  1  0  0  0  0
 28 45  1  0  0  0  0
M  END
$$$$
CHEMBL43205
  -OEChem-07121202283D

 56 60  0     0  0  0  0  0  0999 V2000
   -0.0187    1.5258    0.0104 C   0  0  0  0  0  0  0  0  0  0  0  0
    0.0021   -0.0041    0.0020 C   0  0  0  0  0  0  0  0  0  0  0  0
    0.7182   -0.4975   -1.2568 C   0  0  0  0  0  0  0  0  0  0  0  0
    0.7376   -1.9263   -1.2646 O   0  0  0  0  0  0  0  0  0  0  0  0
    1.3405   -2.5286   -2.3210 C   0  0  0  0  0  0  0  0  0  0  0  0
    1.9074   -1.7603   -3.3271 C   0  0  0  0  0  0  0  0  0  0  0  0
    2.5211   -2.3678   -4.4023 C   0  0  0  0  0  0  0  0  0  0  0  0
    2.5768   -3.7601   -4.4860 C   0  0  0  0  0  0  0  0  0  0  0  0
    2.0128   -4.5404   -3.4839 C   0  0  0  0  0  0  0  0  0  0  0  0
    1.3958   -3.9274   -2.3930 C   0  0  0  0  0  0  0  0  0  0  0  0
    0.7989   -4.7484   -1.3220 C   0  0  0  0  0  0  0  0  0  0  0  0
    0.2171   -4.1415   -0.3150 N   0  0  0  0  0  0  0  0  0  0  0  0
   -0.3451   -4.8233    0.6905 C   0  0  0  0  0  0  0  0  0  0  0  0
   -0.3142   -6.2282    0.6719 C   0  0  0  0  0  0  0  0  0  0  0  0
   -0.9692   -6.6752    1.8346 C   0  0  0  0  0  0  0  0  0  0  0  0
   -1.3679   -5.6319    2.5086 N   0  0  0  0  0  0  0  0  0  0  0  0
   -0.9978   -4.4651    1.8283 N   0  0  0  0  0  0  0  0  0  0  0  0
   -1.2669   -3.0937    2.2677 C   0  0  0  0  0  0  0  0  0  0  0  0
   -1.1750   -8.1139    2.2330 C   0  0  0  0  0  0  0  0  0  0  0  0
    0.3375   -6.8925   -0.4563 C   0  0  0  0  0  0  0  0  0  0  0  0
    0.8704   -6.1097   -1.4234 N   0  0  0  0  0  0  0  0  0  0  0  0
    0.3946   -8.1075   -0.5256 O   0  0  0  0  0  0  0  0  0  0  0  0
    3.2383   -4.4073   -5.6460 C   0  0  0  0  0  0  0  0  0  0  0  0
    3.8894   -3.6479   -6.5830 C   0  0  0  0  0  0  0  0  0  0  0  0
    4.4660   -4.9211   -7.6983 S   0  0  0  0  0  0  0  0  0  0  0  0
    3.7879   -6.3171   -6.8114 C   0  0  0  0  0  0  0  0  0  0  0  0
    3.2095   -5.7194   -5.7818 N   0  0  0  0  0  0  0  0  0  0  0  0
    3.8591   -7.7575   -7.1382 C   0  0  0  0  0  0  0  0  0  0  0  0
    3.2487   -8.6961   -6.3051 C   0  0  0  0  0  0  0  0  0  0  0  0
    3.3188  -10.0385   -6.6156 C   0  0  0  0  0  0  0  0  0  0  0  0
    3.9928  -10.4549   -7.7499 C   0  0  0  0  0  0  0  0  0  0  0  0
    4.6000   -9.5296   -8.5800 C   0  0  0  0  0  0  0  0  0  0  0  0
    4.5319   -8.1837   -8.2841 C   0  0  0  0  0  0  0  0  0  0  0  0
    1.0039    1.9031    0.0027 H   0  0  0  0  0  0  0  0  0  0  0  0
   -0.5459    1.8868   -0.8726 H   0  0  0  0  0  0  0  0  0  0  0  0
   -0.5289    1.8773    0.9072 H   0  0  0  0  0  0  0  0  0  0  0  0
    0.5293   -0.3651    0.8851 H   0  0  0  0  0  0  0  0  0  0  0  0
   -1.0205   -0.3814    0.0098 H   0  0  0  0  0  0  0  0  0  0  0  0
    0.1910   -0.1364   -2.1398 H   0  0  0  0  0  0  0  0  0  0  0  0
    1.7408   -0.1202   -1.2645 H   0  0  0  0  0  0  0  0  0  0  0  0
    1.8678   -0.6826   -3.2685 H   0  0  0  0  0  0  0  0  0  0  0  0
    2.9600   -1.7641   -5.1828 H   0  0  0  0  0  0  0  0  0  0  0  0
    2.0552   -5.6177   -3.5475 H   0  0  0  0  0  0  0  0  0  0  0  0
   -2.2267   -2.7659    1.8684 H   0  0  0  0  0  0  0  0  0  0  0  0
   -1.2960   -3.0602    3.3568 H   0  0  0  0  0  0  0  0  0  0  0  0
   -0.4782   -2.4346    1.9049 H   0  0  0  0  0  0  0  0  0  0  0  0
   -0.3315   -8.4478    2.8373 H   0  0  0  0  0  0  0  0  0  0  0  0
   -2.0943   -8.2027    2.8119 H   0  0  0  0  0  0  0  0  0  0  0  0
   -1.2481   -8.7319    1.3381 H   0  0  0  0  0  0  0  0  0  0  0  0
    4.0183   -2.5768   -6.6338 H   0  0  0  0  0  0  0  0  0  0  0  0
    2.7230   -8.3723   -5.4190 H   0  0  0  0  0  0  0  0  0  0  0  0
    2.8469  -10.7659   -5.9717 H   0  0  0  0  0  0  0  0  0  0  0  0
    4.0454  -11.5070   -7.9881 H   0  0  0  0  0  0  0  0  0  0  0  0
    5.1245   -9.8611   -9.4639 H   0  0  0  0  0  0  0  0  0  0  0  0
    5.0025   -7.4619   -8.9353 H   0  0  0  0  0  0  0  0  0  0  0  0
    1.3075   -6.5156   -2.1883 H   0  0  0  0  0  0  0  0  0  0  0  0
  1  2  1  0  0  0  0
  1 34  1  0  0  0  0
  1 35  1  0  0  0  0
  1 36  1  0  0  0  0
  2  3  1  0  0  0  0
  2 37  1  0  0  0  0
  2 38  1  0  0  0  0
  3  4  1  0  0  0  0
  3 39  1  0  0  0  0
  3 40  1  0  0  0  0
  4  5  1  0  0  0  0
  5 10  2  0  0  0  0
  5  6  1  0  0  0  0
  6  7  2  0  0  0  0
  6 41  1  0  0  0  0
  7  8  1  0  0  0  0
  7 42  1  0  0  0  0
  8  9  2  0  0  0  0
  8 23  1  0  0  0  0
  9 10  1  0  0  0  0
  9 43  1  0  0  0  0
 10 11  1  0  0  0  0
 11 21  1  0  0  0  0
 11 12  2  0  0  0  0
 12 13  1  0  0  0  0
 13 17  1  0  0  0  0
 13 14  2  0  0  0  0
 14 15  1  0  0  0  0
 14 20  1  0  0  0  0
 15 16  2  0  0  0  0
 15 19  1  0  0  0  0
 16 17  1  0  0  0  0
 17 18  1  0  0  0  0
 18 44  1  0  0  0  0
 18 45  1  0  0  0  0
 18 46  1  0  0  0  0
 19 47  1  0  0  0  0
 19 48  1  0  0  0  0
 19 49  1  0  0  0  0
 20 21  1  0  0  0  0
 20 22  2  0  0  0  0
 21 56  1  0  0  0  0
 23 27  1  0  0  0  0
 23 24  2  0  0  0  0
 24 25  1  0  0  0  0
 24 50  1  0  0  0  0
 25 26  1  0  0  0  0
 26 27  2  0  0  0  0
 26 28  1  0  0  0  0
 28 33  2  0  0  0  0
 28 29  1  0  0  0  0
 29 30  2  0  0  0  0
 29 51  1  0  0  0  0
 30 31  1  0  0  0  0
 30 52  1  0  0  0  0
 31 32  2  0  0  0  0
 31 53  1  0  0  0  0
 32 33  1  0  0  0  0
 32 54  1  0  0  0  0
 33 55  1  0  0  0  0
M  END
$$$$
CHEMBL44508
  -OEChem-07121202283D

 34 36  0     0  0  0  0  0  0999 V2000
   -0.0187    1.5258    0.0104 C   0  0  0  0  0  0  0  0  0  0  0  0
    0.0021   -0.0041    0.0020 C   0  0  0  0  0  0  0  0  0  0  0  0
    0.7182   -0.4975   -1.2568 C   0  0  0  0  0  0  0  0  0  0  0  0
    0.7376   -1.9263   -1.2646 O   0  0  0  0  0  0  0  0  0  0  0  0
    1.3405   -2.5285   -2.3209 C   0  0  0  0  0  0  0  0  0  0  0  0
    1.9079   -1.7631   -3.3280 C   0  0  0  0  0  0  0  0  0  0  0  0
    2.5207   -2.3772   -4.4027 C   0  0  0  0  0  0  0  0  0  0  0  0
    2.5736   -3.7590   -4.4834 C   0  0  0  0  0  0  0  0  0  0  0  0
    2.0146   -4.5352   -3.4910 C   0  0  0  0  0  0  0  0  0  0  0  0
    1.3973   -3.9268   -2.3956 C   0  0  0  0  0  0  0  0  0  0  0  0
    0.8022   -4.7516   -1.3267 C   0  0  0  0  0  0  0  0  0  0  0  0
    0.2200   -4.1483   -0.3177 N   0  0  0  0  0  0  0  0  0  0  0  0
   -0.3403   -4.8338    0.6864 C   0  0  0  0  0  0  0  0  0  0  0  0
   -0.3068   -6.2386    0.6642 C   0  0  0  0  0  0  0  0  0  0  0  0
   -0.9596   -6.6899    1.8265 C   0  0  0  0  0  0  0  0  0  0  0  0
   -1.3593   -5.6491    2.5037 N   0  0  0  0  0  0  0  0  0  0  0  0
   -1.1722   -3.5729    2.1192 H   0  0  0  0  0  0  0  0  0  0  0  0
   -0.9922   -4.4798    1.8260 N   0  0  0  0  0  0  0  0  0  0  0  0
    0.3451   -6.8987   -0.4664 C   0  0  0  0  0  0  0  0  0  0  0  0
    0.8758   -6.1125   -1.4318 N   0  0  0  0  0  0  0  0  0  0  0  0
    0.4044   -8.1134   -0.5389 O   0  0  0  0  0  0  0  0  0  0  0  0
    1.0039    1.9031    0.0027 H   0  0  0  0  0  0  0  0  0  0  0  0
   -0.5459    1.8868   -0.8726 H   0  0  0  0  0  0  0  0  0  0  0  0
   -0.5289    1.8773    0.9072 H   0  0  0  0  0  0  0  0  0  0  0  0
    0.5293   -0.3651    0.8851 H   0  0  0  0  0  0  0  0  0  0  0  0
   -1.0205   -0.3814    0.0098 H   0  0  0  0  0  0  0  0  0  0  0  0
    0.1910   -0.1364   -2.1398 H   0  0  0  0  0  0  0  0  0  0  0  0
    1.7408   -0.1202   -1.2645 H   0  0  0  0  0  0  0  0  0  0  0  0
    1.8703   -0.6852   -3.2723 H   0  0  0  0  0  0  0  0  0  0  0  0
    2.9609   -1.7765   -5.1849 H   0  0  0  0  0  0  0  0  0  0  0  0
    3.0546   -4.2302   -5.3277 H   0  0  0  0  0  0  0  0  0  0  0  0
    2.0575   -5.6123   -3.5583 H   0  0  0  0  0  0  0  0  0  0  0  0
   -1.1051   -7.7219    2.1094 H   0  0  0  0  0  0  0  0  0  0  0  0
    1.3126   -6.5156   -2.1984 H   0  0  0  0  0  0  0  0  0  0  0  0
  1  2  1  0  0  0  0
  1 22  1  0  0  0  0
  1 23  1  0  0  0  0
  1 24  1  0  0  0  0
  2  3  1  0  0  0  0
  2 25  1  0  0  0  0
  2 26  1  0  0  0  0
  3  4  1  0  0  0  0
  3 27  1  0  0  0  0
  3 28  1  0  0  0  0
  4  5  1  0  0  0  0
  5 10  2  0  0  0  0
  5  6  1  0  0  0  0
  6  7  2  0  0  0  0
  6 29  1  0  0  0  0
  7  8  1  0  0  0  0
  7 30  1  0  0  0  0
  8  9  2  0  0  0  0
  8 31  1  0  0  0  0
  9 10  1  0  0  0  0
  9 32  1  0  0  0  0
 10 11  1  0  0  0  0
 11 20  1  0  0  0  0
 11 12  2  0  0  0  0
 12 13  1  0  0  0  0
 13 14  2  0  0  0  0
 13 18  1  0  0  0  0
 14 19  1  0  0  0  0
 14 15  1  0  0  0  0
 15 33  1  0  0  0  0
 15 16  2  0  0  0  0
 16 18  1  0  0  0  0
 17 18  1  0  0  0  0
 19 20  1  0  0  0  0
 19 21  2  0  0  0  0
 20 34  1  0  0  0  0
M  END
$$$$
CHEMBL44508
  -OEChem-07121202283D

 33 35  0     0  0  0  0  0  0999 V2000
   -0.0187    1.5258    0.0104 C   0  0  0  0  0  0  0  0  0  0  0  0
    0.0021   -0.0041    0.0020 C   0  0  0  0  0  0  0  0  0  0  0  0
   -1.4333   -0.5336    0.0129 C   0  0  0  0  0  0  0  0  0  0  0  0
   -1.4139   -1.9625    0.0050 O   0  0  0  0  0  0  0  0  0  0  0  0
   -2.6152   -2.5953    0.0131 C   0  0  0  0  0  0  0  0  0  0  0  0
   -3.7896   -1.8588    0.0225 C   0  0  0  0  0  0  0  0  0  0  0  0
   -5.0111   -2.5039    0.0302 C   0  0  0  0  0  0  0  0  0  0  0  0
   -5.0712   -3.8870    0.0291 C   0  0  0  0  0  0  0  0  0  0  0  0
   -3.9112   -4.6332    0.0203 C   0  0  0  0  0  0  0  0  0  0  0  0
   -2.6726   -3.9931    0.0061 C   0  0  0  0  0  0  0  0  0  0  0  0
   -1.4237   -4.7892   -0.0095 C   0  0  0  0  0  0  0  0  0  0  0  0
   -1.5093   -6.1100   -0.0213 N   0  0  0  0  0  0  0  0  0  0  0  0
   -0.4106   -6.8590   -0.0360 C   0  0  0  0  0  0  0  0  0  0  0  0
    0.8482   -6.2232   -0.0388 C   0  0  0  0  0  0  0  0  0  0  0  0
    1.8251   -7.2423   -0.0547 C   0  0  0  0  0  0  0  0  0  0  0  0
    1.2193   -8.3953   -0.0610 N   0  0  0  0  0  0  0  0  0  0  0  0
   -0.8397   -8.9004   -0.0512 H   0  0  0  0  0  0  0  0  0  0  0  0
   -0.1676   -8.2010   -0.0498 N   0  0  0  0  0  0  0  0  0  0  0  0
    0.8885   -4.8166   -0.0257 C   0  0  0  0  0  0  0  0  0  0  0  0
   -0.2566   -4.1507   -0.0168 N   0  0  0  0  0  0  0  0  0  0  0  0
    2.0714   -4.1584   -0.0273 O   0  5  0  0  0  0  0  0  0  0  0  0
    1.0039    1.9031    0.0027 H   0  0  0  0  0  0  0  0  0  0  0  0
   -0.5459    1.8868   -0.8726 H   0  0  0  0  0  0  0  0  0  0  0  0
   -0.5289    1.8773    0.9072 H   0  0  0  0  0  0  0  0  0  0  0  0
    0.5123   -0.3556   -0.8948 H   0  0  0  0  0  0  0  0  0  0  0  0
    0.5293   -0.3651    0.8851 H   0  0  0  0  0  0  0  0  0  0  0  0
   -1.9435   -0.1821    0.9097 H   0  0  0  0  0  0  0  0  0  0  0  0
   -1.9605   -0.1726   -0.8702 H   0  0  0  0  0  0  0  0  0  0  0  0
   -3.7495   -0.7795    0.0241 H   0  0  0  0  0  0  0  0  0  0  0  0
   -5.9237   -1.9264    0.0375 H   0  0  0  0  0  0  0  0  0  0  0  0
   -6.0302   -4.3837    0.0355 H   0  0  0  0  0  0  0  0  0  0  0  0
   -3.9623   -5.7119    0.0198 H   0  0  0  0  0  0  0  0  0  0  0  0
    2.8945   -7.0913   -0.0610 H   0  0  0  0  0  0  0  0  0  0  0  0
  1  2  1  0  0  0  0
  1 22  1  0  0  0  0
  1 23  1  0  0  0  0
  1 24  1  0  0  0  0
  2  3  1  0  0  0  0
  2 25  1  0  0  0  0
  2 26  1  0  0  0  0
  3  4  1  0  0  0  0
  3 27  1  0  0  0  0
  3 28  1  0  0  0  0
  4  5  1  0  0  0  0
  5 10  2  0  0  0  0
  5  6  1  0  0  0  0
  6  7  2  0  0  0  0
  6 29  1  0  0  0  0
  7  8  1  0  0  0  0
  7 30  1  0  0  0  0
  8  9  2  0  0  0  0
  8 31  1  0  0  0  0
  9 10  1  0  0  0  0
  9 32  1  0  0  0  0
 10 11  1  0  0  0  0
 11 20  2  0  0  0  0
 11 12  1  0  0  0  0
 12 13  2  0  0  0  0
 13 14  1  0  0  0  0
 13 18  1  0  0  0  0
 14 19  2  0  0  0  0
 14 15  1  0  0  0  0
 15 33  1  0  0  0  0
 15 16  2  0  0  0  0
 16 18  1  0  0  0  0
 17 18  1  0  0  0  0
 19 20  1  0  0  0  0
 19 21  1  0  0  0  0
M  CHG  1  21  -1
M  END
$$$$
CHEMBL44508
  -OEChem-07121202283D

 33 35  0     0  0  0  0  0  0999 V2000
   -0.0187    1.5258    0.0104 C   0  0  0  0  0  0  0  0  0  0  0  0
    0.0021   -0.0041    0.0020 C   0  0  0  0  0  0  0  0  0  0  0  0
    0.7421   -0.5109    1.2415 C   0  0  0  0  0  0  0  0  0  0  0  0
    0.7614   -1.9398    1.2337 O   0  0  0  0  0  0  0  0  0  0  0  0
    1.3846   -2.5535    2.2721 C   0  0  0  0  0  0  0  0  0  0  0  0
    1.9611   -1.7987    3.2821 C   0  0  0  0  0  0  0  0  0  0  0  0
    2.5948   -2.4244    4.3380 C   0  0  0  0  0  0  0  0  0  0  0  0
    2.6586   -3.8062    4.3956 C   0  0  0  0  0  0  0  0  0  0  0  0
    2.0897   -4.5704    3.3983 C   0  0  0  0  0  0  0  0  0  0  0  0
    1.4424   -3.9502    2.3303 C   0  0  0  0  0  0  0  0  0  0  0  0
    0.8243   -4.7657    1.2596 C   0  0  0  0  0  0  0  0  0  0  0  0
    0.8965   -6.0778    1.3552 N   0  0  0  0  0  0  0  0  0  0  0  0
    0.3492   -6.8586    0.4059 C   0  0  0  0  0  0  0  0  0  0  0  0
   -0.3237   -6.1988   -0.7272 C   0  0  0  0  0  0  0  0  0  0  0  0
   -0.7911   -7.2049   -1.5451 C   0  0  0  0  0  0  0  0  0  0  0  0
   -0.4514   -8.3756   -0.9907 N   0  0  0  0  0  0  0  0  0  0  0  0
   -0.6577   -9.2479   -1.3616 H   0  0  0  0  0  0  0  0  0  0  0  0
    0.2460   -8.1547    0.2027 N   0  0  0  0  0  0  0  0  0  0  0  0
   -0.3514   -4.7826   -0.7447 C   0  0  0  0  0  0  0  0  0  0  0  0
    0.2199   -4.1326    0.2535 N   0  0  0  0  0  0  0  0  0  0  0  0
   -0.9517   -4.1132   -1.7547 O   0  5  0  0  0  0  0  0  0  0  0  0
    1.0039    1.9031    0.0027 H   0  0  0  0  0  0  0  0  0  0  0  0
   -0.5459    1.8868   -0.8726 H   0  0  0  0  0  0  0  0  0  0  0  0
   -0.5289    1.8773    0.9072 H   0  0  0  0  0  0  0  0  0  0  0  0
   -1.0205   -0.3814    0.0098 H   0  0  0  0  0  0  0  0  0  0  0  0
    0.5123   -0.3556   -0.8948 H   0  0  0  0  0  0  0  0  0  0  0  0
    1.7647   -0.1336    1.2338 H   0  0  0  0  0  0  0  0  0  0  0  0
    0.2319   -0.1594    2.1383 H   0  0  0  0  0  0  0  0  0  0  0  0
    1.9151   -0.7204    3.2430 H   0  0  0  0  0  0  0  0  0  0  0  0
    3.0429   -1.8327    5.1225 H   0  0  0  0  0  0  0  0  0  0  0  0
    3.1562   -4.2876    5.2244 H   0  0  0  0  0  0  0  0  0  0  0  0
    2.1423   -5.6481    3.4464 H   0  0  0  0  0  0  0  0  0  0  0  0
   -1.3350   -7.0726   -2.4687 H   0  0  0  0  0  0  0  0  0  0  0  0
  1  2  1  0  0  0  0
  1 22  1  0  0  0  0
  1 23  1  0  0  0  0
  1 24  1  0  0  0  0
  2  3  1  0  0  0  0
  2 25  1  0  0  0  0
  2 26  1  0  0  0  0
  3  4  1  0  0  0  0
  3 27  1  0  0  0  0
  3 28  1  0  0  0  0
  4  5  1  0  0  0  0
  5 10  2  0  0  0  0
  5  6  1  0  0  0  0
  6  7  2  0  0  0  0
  6 29  1  0  0  0  0
  7  8  1  0  0  0  0
  7 30  1  0  0  0  0
  8  9  2  0  0  0  0
  8 31  1  0  0  0  0
  9 10  1  0  0  0  0
  9 32  1  0  0  0  0
 10 11  1  0  0  0  0
 11 20  1  0  0  0  0
 11 12  2  0  0  0  0
 12 13  1  0  0  0  0
 13 18  2  0  0  0  0
 13 14  1  0  0  0  0
 14 15  2  0  0  0  0
 14 19  1  0  0  0  0
 15 16  1  0  0  0  0
 15 33  1  0  0  0  0
 16 17  1  0  0  0  0
 16 18  1  0  0  0  0
 19 20  2  0  0  0  0
 19 21  1  0  0  0  0
M  CHG  1  21  -1
M  END
$$$$
CHEMBL44508
  -OEChem-07121202283D

 34 36  0     0  0  0  0  0  0999 V2000
   -0.0187    1.5258    0.0104 C   0  0  0  0  0  0  0  0  0  0  0  0
    0.0021   -0.0041    0.0020 C   0  0  0  0  0  0  0  0  0  0  0  0
    0.7182   -0.4975   -1.2568 C   0  0  0  0  0  0  0  0  0  0  0  0
    0.7376   -1.9263   -1.2646 O   0  0  0  0  0  0  0  0  0  0  0  0
    1.3405   -2.5286   -2.3210 C   0  0  0  0  0  0  0  0  0  0  0  0
    1.9080   -1.7632   -3.3280 C   0  0  0  0  0  0  0  0  0  0  0  0
    2.5217   -2.3773   -4.4023 C   0  0  0  0  0  0  0  0  0  0  0  0
    2.5752   -3.7589   -4.4823 C   0  0  0  0  0  0  0  0  0  0  0  0
    2.0156   -4.5350   -3.4899 C   0  0  0  0  0  0  0  0  0  0  0  0
    1.3973   -3.9265   -2.3956 C   0  0  0  0  0  0  0  0  0  0  0  0
    0.8014   -4.7515   -1.3264 C   0  0  0  0  0  0  0  0  0  0  0  0
    0.2239   -4.1391   -0.3270 N   0  0  0  0  0  0  0  0  0  0  0  0
   -0.3460   -4.8307    0.6932 C   0  0  0  0  0  0  0  0  0  0  0  0
   -0.3002   -6.3019    0.6509 C   0  0  0  0  0  0  0  0  0  0  0  0
   -0.9362   -6.7495    1.7823 C   0  0  0  0  0  0  0  0  0  0  0  0
   -1.3452   -5.6750    2.4743 N   0  0  0  0  0  0  0  0  0  0  0  0
   -1.8238   -5.7040    3.3175 H   0  0  0  0  0  0  0  0  0  0  0  0
   -0.9780   -4.5061    1.7973 N   0  0  0  0  0  0  0  0  0  0  0  0
    0.3621   -6.9304   -0.4978 C   0  0  0  0  0  0  0  0  0  0  0  0
    0.8817   -6.1139   -1.4433 N   0  0  0  0  0  0  0  0  0  0  0  0
    0.4372   -8.1410   -0.5985 O   0  0  0  0  0  0  0  0  0  0  0  0
    1.0039    1.9031    0.0027 H   0  0  0  0  0  0  0  0  0  0  0  0
   -0.5459    1.8868   -0.8726 H   0  0  0  0  0  0  0  0  0  0  0  0
   -0.5289    1.8773    0.9072 H   0  0  0  0  0  0  0  0  0  0  0  0
    0.5293   -0.3651    0.8851 H   0  0  0  0  0  0  0  0  0  0  0  0
   -1.0205   -0.3814    0.0098 H   0  0  0  0  0  0  0  0  0  0  0  0
    0.1910   -0.1364   -2.1398 H   0  0  0  0  0  0  0  0  0  0  0  0
    1.7408   -0.1202   -1.2645 H   0  0  0  0  0  0  0  0  0  0  0  0
    1.8698   -0.6853   -3.2726 H   0  0  0  0  0  0  0  0  0  0  0  0
    2.9620   -1.7767   -5.1845 H   0  0  0  0  0  0  0  0  0  0  0  0
    3.0572   -4.2303   -5.3261 H   0  0  0  0  0  0  0  0  0  0  0  0
    2.0593   -5.6120   -3.5564 H   0  0  0  0  0  0  0  0  0  0  0  0
   -1.0817   -7.7817    2.0647 H   0  0  0  0  0  0  0  0  0  0  0  0
    1.3223   -6.5003   -2.2163 H   0  0  0  0  0  0  0  0  0  0  0  0
  1  2  1  0  0  0  0
  1 22  1  0  0  0  0
  1 23  1  0  0  0  0
  1 24  1  0  0  0  0
  2  3  1  0  0  0  0
  2 25  1  0  0  0  0
  2 26  1  0  0  0  0
  3  4  1  0  0  0  0
  3 27  1  0  0  0  0
  3 28  1  0  0  0  0
  4  5  1  0  0  0  0
  5 10  2  0  0  0  0
  5  6  1  0  0  0  0
  6  7  2  0  0  0  0
  6 29  1  0  0  0  0
  7  8  1  0  0  0  0
  7 30  1  0  0  0  0
  8  9  2  0  0  0  0
  8 31  1  0  0  0  0
  9 10  1  0  0  0  0
  9 32  1  0  0  0  0
 10 11  1  0  0  0  0
 11 20  1  0  0  0  0
 11 12  2  0  0  0  0
 12 13  1  0  0  0  0
 13 18  2  0  0  0  0
 13 14  1  0  0  0  0
 14 15  2  0  0  0  0
 14 19  1  0  0  0  0
 15 16  1  0  0  0  0
 15 33  1  0  0  0  0
 16 17  1  0  0  0  0
 16 18  1  0  0  0  0
 19 20  1  0  0  0  0
 19 21  2  0  0  0  0
 20 34  1  0  0  0  0
M  END
$$$$
CHEMBL564374
  -OEChem-07121202283D

 66 69  0     0  0  0  0  0  0999 V2000
   -0.0187    1.5258    0.0104 C   0  0  0  0  0  0  0  0  0  0  0  0
    0.0021   -0.0041    0.0020 C   0  0  0  0  0  0  0  0  0  0  0  0
   -1.4333   -0.5336    0.0129 C   0  0  0  0  0  0  0  0  0  0  0  0
   -1.4139   -1.9625    0.0050 O   0  0  0  0  0  0  0  0  0  0  0  0
   -2.7113   -2.5614    0.0142 C   0  0  0  0  0  0  0  0  0  0  0  0
   -2.5698   -4.0848    0.0047 C   0  0  0  0  0  0  0  0  0  0  0  0
   -1.9315   -4.5238    1.2481 N   0  0  0  0  0  0  0  0  0  0  0  0
   -0.5572   -4.6252    1.3301 C   0  0  0  0  0  0  0  0  0  0  0  0
    0.0441   -5.0483    2.5309 C   0  0  0  0  0  0  0  0  0  0  0  0
    1.4447   -5.1455    2.5957 C   0  0  0  0  0  0  0  0  0  0  0  0
    2.1734   -4.8237    1.4839 C   0  0  0  0  0  0  0  0  0  0  0  0
    1.5139   -4.4104    0.3229 C   0  0  0  0  0  0  0  0  0  0  0  0
    0.1918   -4.3248    0.2794 N   0  0  0  0  0  0  0  0  0  0  0  0
    2.3060   -4.0625   -0.8796 C   0  0  0  0  0  0  0  0  0  0  0  0
    1.6780   -3.5415   -2.0178 C   0  0  0  0  0  0  0  0  0  0  0  0
    2.4583   -3.2324   -3.1142 C   0  0  0  0  0  0  0  0  0  0  0  0
    3.8310   -3.4467   -3.0534 C   0  0  0  0  0  0  0  0  0  0  0  0
    4.3942   -3.9410   -1.9628 N   0  0  0  0  0  0  0  0  0  0  0  0
    3.6873   -4.2435   -0.8928 C   0  0  0  0  0  0  0  0  0  0  0  0
    4.6030   -3.1453   -4.1268 O   0  0  0  0  0  0  0  0  0  0  0  0
    6.0062   -3.3870   -4.0051 C   0  0  0  0  0  0  0  0  0  0  0  0
   -0.7042   -5.3581    3.6074 N   0  0  0  0  0  0  0  0  0  0  0  0
   -2.0103   -5.2735    3.5658 C   0  0  0  0  0  0  0  0  0  0  0  0
   -2.6799   -4.8289    2.3298 C   0  0  0  0  0  0  0  0  0  0  0  0
   -3.8931   -4.7425    2.2836 O   0  0  0  0  0  0  0  0  0  0  0  0
   -2.7612   -5.5963    4.6827 N   0  0  0  0  0  0  0  0  0  0  0  0
   -2.0949   -6.0328    5.9122 C   0  0  0  0  0  0  0  0  0  0  0  0
   -3.1454   -6.3250    6.9854 C   0  0  0  0  0  0  0  0  0  0  0  0
   -2.4773   -6.7627    8.2183 N   0  0  0  0  0  0  0  0  0  0  0  0
   -1.8134   -8.0601    8.0257 C   0  0  0  0  0  0  0  0  0  0  0  0
   -1.0818   -8.4490    9.3131 C   0  0  0  0  0  0  0  0  0  0  0  0
   -2.0147   -8.4739   10.3967 O   0  0  0  0  0  0  0  0  0  0  0  0
   -2.6793   -7.2261   10.6130 C   0  0  0  0  0  0  0  0  0  0  0  0
   -3.4271   -6.8248    9.3387 C   0  0  0  0  0  0  0  0  0  0  0  0
    1.0039    1.9031    0.0027 H   0  0  0  0  0  0  0  0  0  0  0  0
   -0.5459    1.8868   -0.8726 H   0  0  0  0  0  0  0  0  0  0  0  0
   -0.5289    1.8773    0.9072 H   0  0  0  0  0  0  0  0  0  0  0  0
    0.5123   -0.3556   -0.8948 H   0  0  0  0  0  0  0  0  0  0  0  0
    0.5293   -0.3651    0.8851 H   0  0  0  0  0  0  0  0  0  0  0  0
   -1.9435   -0.1821    0.9097 H   0  0  0  0  0  0  0  0  0  0  0  0
   -1.9605   -0.1726   -0.8702 H   0  0  0  0  0  0  0  0  0  0  0  0
   -3.2480   -2.2520    0.9110 H   0  0  0  0  0  0  0  0  0  0  0  0
   -3.2650   -2.2424   -0.8688 H   0  0  0  0  0  0  0  0  0  0  0  0
   -3.5564   -4.5409   -0.0779 H   0  0  0  0  0  0  0  0  0  0  0  0
   -1.9574   -4.3876   -0.8447 H   0  0  0  0  0  0  0  0  0  0  0  0
    1.9345   -5.4668    3.5030 H   0  0  0  0  0  0  0  0  0  0  0  0
    3.2513   -4.8882    1.5031 H   0  0  0  0  0  0  0  0  0  0  0  0
    0.6095   -3.3855   -2.0375 H   0  0  0  0  0  0  0  0  0  0  0  0
    2.0076   -2.8291   -4.0091 H   0  0  0  0  0  0  0  0  0  0  0  0
    4.1829   -4.6404   -0.0191 H   0  0  0  0  0  0  0  0  0  0  0  0
    6.5054   -3.1035   -4.9317 H   0  0  0  0  0  0  0  0  0  0  0  0
    6.4065   -2.7962   -3.1812 H   0  0  0  0  0  0  0  0  0  0  0  0
    6.1769   -4.4456   -3.8096 H   0  0  0  0  0  0  0  0  0  0  0  0
   -3.7287   -5.5335    4.6514 H   0  0  0  0  0  0  0  0  0  0  0  0
   -1.5187   -6.9362    5.7122 H   0  0  0  0  0  0  0  0  0  0  0  0
   -1.4269   -5.2459    6.2624 H   0  0  0  0  0  0  0  0  0  0  0  0
   -3.7216   -5.4216    7.1855 H   0  0  0  0  0  0  0  0  0  0  0  0
   -3.8135   -7.1119    6.6352 H   0  0  0  0  0  0  0  0  0  0  0  0
   -2.5589   -8.8187    7.7874 H   0  0  0  0  0  0  0  0  0  0  0  0
   -1.0963   -7.9842    7.2083 H   0  0  0  0  0  0  0  0  0  0  0  0
   -0.6357   -9.4365    9.1941 H   0  0  0  0  0  0  0  0  0  0  0  0
   -0.3002   -7.7187    9.5224 H   0  0  0  0  0  0  0  0  0  0  0  0
   -3.3887   -7.3290   11.4341 H   0  0  0  0  0  0  0  0  0  0  0  0
   -1.9442   -6.4602   10.8601 H   0  0  0  0  0  0  0  0  0  0  0  0
   -3.8880   -5.8472    9.4798 H   0  0  0  0  0  0  0  0  0  0  0  0
   -4.1985   -7.5636    9.1214 H   0  0  0  0  0  0  0  0  0  0  0  0
  1  2  1  0  0  0  0
  1 35  1  0  0  0  0
  1 36  1  0  0  0  0
  1 37  1  0  0  0  0
  2  3  1  0  0  0  0
  2 38  1  0  0  0  0
  2 39  1  0  0  0  0
  3  4  1  0  0  0  0
  3 40  1  0  0  0  0
  3 41  1  0  0  0  0
  4  5  1  0  0  0  0
  5  6  1  0  0  0  0
  5 42  1  0  0  0  0
  5 43  1  0  0  0  0
  6  7  1  0  0  0  0
  6 44  1  0  0  0  0
  6 45  1  0  0  0  0
  7 24  1  0  0  0  0
  7  8  1  0  0  0  0
  8 13  2  0  0  0  0
  8  9  1  0  0  0  0
  9 10  2  0  0  0  0
  9 22  1  0  0  0  0
 10 11  1  0  0  0  0
 10 46  1  0  0  0  0
 11 12  2  0  0  0  0
 11 47  1  0  0  0  0
 12 13  1  0  0  0  0
 12 14  1  0  0  0  0
 14 19  2  0  0  0  0
 14 15  1  0  0  0  0
 15 16  2  0  0  0  0
 15 48  1  0  0  0  0
 16 17  1  0  0  0  0
 16 49  1  0  0  0  0
 17 18  2  0  0  0  0
 17 20  1  0  0  0  0
 18 19  1  0  0  0  0
 19 50  1  0  0  0  0
 20 21  1  0  0  0  0
 21 51  1  0  0  0  0
 21 52  1  0  0  0  0
 21 53  1  0  0  0  0
 22 23  2  0  0  0  0
 23 24  1  0  0  0  0
 23 26  1  0  0  0  0
 24 25  2  0  0  0  0
 26 27  1  0  0  0  0
 26 54  1  0  0  0  0
 27 28  1  0  0  0  0
 27 55  1  0  0  0  0
 27 56  1  0  0  0  0
 28 29  1  0  0  0  0
 28 57  1  0  0  0  0
 28 58  1  0  0  0  0
 29 34  1  0  0  0  0
 29 30  1  0  0  0  0
 30 31  1  0  0  0  0
 30 59  1  0  0  0  0
 30 60  1  0  0  0  0
 31 32  1  0  0  0  0
 31 61  1  0  0  0  0
 31 62  1  0  0  0  0
 32 33  1  0  0  0  0
 33 34  1  0  0  0  0
 33 63  1  0  0  0  0
 33 64  1  0  0  0  0
 34 65  1  0  0  0  0
 34 66  1  0  0  0  0
M  END
$$$$
CHEMBL564374
  -OEChem-07121202283D

 67 70  0     0  0  0  0  0  0999 V2000
   -0.0187    1.5258    0.0104 C   0  0  0  0  0  0  0  0  0  0  0  0
    0.0021   -0.0041    0.0020 C   0  0  0  0  0  0  0  0  0  0  0  0
   -1.4333   -0.5336    0.0129 C   0  0  0  0  0  0  0  0  0  0  0  0
   -1.4139   -1.9625    0.0050 O   0  0  0  0  0  0  0  0  0  0  0  0
   -2.7113   -2.5614    0.0142 C   0  0  0  0  0  0  0  0  0  0  0  0
   -2.5698   -4.0848    0.0047 C   0  0  0  0  0  0  0  0  0  0  0  0
   -1.9315   -4.5238    1.2481 N   0  0  0  0  0  0  0  0  0  0  0  0
   -0.5572   -4.6252    1.3301 C   0  0  0  0  0  0  0  0  0  0  0  0
    0.0441   -5.0483    2.5309 C   0  0  0  0  0  0  0  0  0  0  0  0
    1.4447   -5.1455    2.5957 C   0  0  0  0  0  0  0  0  0  0  0  0
    2.1734   -4.8237    1.4839 C   0  0  0  0  0  0  0  0  0  0  0  0
    1.5139   -4.4104    0.3229 C   0  0  0  0  0  0  0  0  0  0  0  0
    0.1918   -4.3248    0.2794 N   0  0  0  0  0  0  0  0  0  0  0  0
    2.3060   -4.0625   -0.8796 C   0  0  0  0  0  0  0  0  0  0  0  0
    1.6780   -3.5415   -2.0178 C   0  0  0  0  0  0  0  0  0  0  0  0
    2.4583   -3.2324   -3.1142 C   0  0  0  0  0  0  0  0  0  0  0  0
    3.8310   -3.4467   -3.0534 C   0  0  0  0  0  0  0  0  0  0  0  0
    4.3942   -3.9410   -1.9628 N   0  0  0  0  0  0  0  0  0  0  0  0
    3.6873   -4.2435   -0.8928 C   0  0  0  0  0  0  0  0  0  0  0  0
    4.6030   -3.1453   -4.1268 O   0  0  0  0  0  0  0  0  0  0  0  0
    6.0062   -3.3870   -4.0051 C   0  0  0  0  0  0  0  0  0  0  0  0
   -0.7042   -5.3581    3.6074 N   0  0  0  0  0  0  0  0  0  0  0  0
   -2.0103   -5.2735    3.5658 C   0  0  0  0  0  0  0  0  0  0  0  0
   -2.6799   -4.8289    2.3298 C   0  0  0  0  0  0  0  0  0  0  0  0
   -3.8931   -4.7425    2.2836 O   0  0  0  0  0  0  0  0  0  0  0  0
   -2.7612   -5.5963    4.6827 N   0  0  0  0  0  0  0  0  0  0  0  0
   -2.0949   -6.0328    5.9122 C   0  0  0  0  0  0  0  0  0  0  0  0
   -3.1454   -6.3250    6.9854 C   0  0  0  0  0  0  0  0  0  0  0  0
   -2.4773   -6.7627    8.2183 N   0  3  0  0  0  0  0  0  0  0  0  0
   -1.7996   -8.0445    7.9799 C   0  0  0  0  0  0  0  0  0  0  0  0
   -1.1041   -8.4982    9.2658 C   0  0  0  0  0  0  0  0  0  0  0  0
   -2.0720   -8.6026   10.3137 O   0  0  0  0  0  0  0  0  0  0  0  0
   -2.7766   -7.3840   10.5676 C   0  0  0  0  0  0  0  0  0  0  0  0
   -3.4752   -6.9282    9.2841 C   0  0  0  0  0  0  0  0  0  0  0  0
    1.0039    1.9031    0.0027 H   0  0  0  0  0  0  0  0  0  0  0  0
   -0.5459    1.8868   -0.8726 H   0  0  0  0  0  0  0  0  0  0  0  0
   -0.5289    1.8773    0.9072 H   0  0  0  0  0  0  0  0  0  0  0  0
    0.5123   -0.3556   -0.8948 H   0  0  0  0  0  0  0  0  0  0  0  0
    0.5293   -0.3651    0.8851 H   0  0  0  0  0  0  0  0  0  0  0  0
   -1.9435   -0.1821    0.9097 H   0  0  0  0  0  0  0  0  0  0  0  0
   -1.9605   -0.1726   -0.8702 H   0  0  0  0  0  0  0  0  0  0  0  0
   -3.2480   -2.2520    0.9110 H   0  0  0  0  0  0  0  0  0  0  0  0
   -3.2650   -2.2424   -0.8688 H   0  0  0  0  0  0  0  0  0  0  0  0
   -3.5564   -4.5409   -0.0779 H   0  0  0  0  0  0  0  0  0  0  0  0
   -1.9574   -4.3876   -0.8447 H   0  0  0  0  0  0  0  0  0  0  0  0
    1.9345   -5.4668    3.5030 H   0  0  0  0  0  0  0  0  0  0  0  0
    3.2513   -4.8882    1.5031 H   0  0  0  0  0  0  0  0  0  0  0  0
    0.6095   -3.3855   -2.0375 H   0  0  0  0  0  0  0  0  0  0  0  0
    2.0076   -2.8291   -4.0091 H   0  0  0  0  0  0  0  0  0  0  0  0
    4.1829   -4.6404   -0.0191 H   0  0  0  0  0  0  0  0  0  0  0  0
    6.5054   -3.1035   -4.9317 H   0  0  0  0  0  0  0  0  0  0  0  0
    6.4065   -2.7962   -3.1812 H   0  0  0  0  0  0  0  0  0  0  0  0
    6.1769   -4.4456   -3.8096 H   0  0  0  0  0  0  0  0  0  0  0  0
   -3.7287   -5.5335    4.6514 H   0  0  0  0  0  0  0  0  0  0  0  0
   -1.5187   -6.9362    5.7122 H   0  0  0  0  0  0  0  0  0  0  0  0
   -1.4269   -5.2459    6.2624 H   0  0  0  0  0  0  0  0  0  0  0  0
   -3.7216   -5.4216    7.1855 H   0  0  0  0  0  0  0  0  0  0  0  0
   -3.8135   -7.1119    6.6352 H   0  0  0  0  0  0  0  0  0  0  0  0
   -2.5328   -8.7930    7.6795 H   0  0  0  0  0  0  0  0  0  0  0  0
   -1.0591   -7.9227    7.1894 H   0  0  0  0  0  0  0  0  0  0  0  0
   -0.6369   -9.4696    9.1036 H   0  0  0  0  0  0  0  0  0  0  0  0
   -0.3430   -7.7694    9.5445 H   0  0  0  0  0  0  0  0  0  0  0  0
   -3.5198   -7.5490   11.3477 H   0  0  0  0  0  0  0  0  0  0  0  0
   -2.0727   -6.6171   10.8909 H   0  0  0  0  0  0  0  0  0  0  0  0
   -3.9784   -5.9779    9.4619 H   0  0  0  0  0  0  0  0  0  0  0  0
   -4.2077   -7.6772    8.9832 H   0  0  0  0  0  0  0  0  0  0  0  0
   -1.7988   -6.0700    8.4974 H   0  0  0  0  0  0  0  0  0  0  0  0
  1  2  1  0  0  0  0
  1 35  1  0  0  0  0
  1 36  1  0  0  0  0
  1 37  1  0  0  0  0
  2  3  1  0  0  0  0
  2 38  1  0  0  0  0
  2 39  1  0  0  0  0
  3  4  1  0  0  0  0
  3 40  1  0  0  0  0
  3 41  1  0  0  0  0
  4  5  1  0  0  0  0
  5  6  1  0  0  0  0
  5 42  1  0  0  0  0
  5 43  1  0  0  0  0
  6  7  1  0  0  0  0
  6 44  1  0  0  0  0
  6 45  1  0  0  0  0
  7 24  1  0  0  0  0
  7  8  1  0  0  0  0
  8 13  2  0  0  0  0
  8  9  1  0  0  0  0
  9 10  2  0  0  0  0
  9 22  1  0  0  0  0
 10 11  1  0  0  0  0
 10 46  1  0  0  0  0
 11 12  2  0  0  0  0
 11 47  1  0  0  0  0
 12 13  1  0  0  0  0
 12 14  1  0  0  0  0
 14 19  2  0  0  0  0
 14 15  1  0  0  0  0
 15 16  2  0  0  0  0
 15 48  1  0  0  0  0
 16 17  1  0  0  0  0
 16 49  1  0  0  0  0
 17 18  2  0  0  0  0
 17 20  1  0  0  0  0
 18 19  1  0  0  0  0
 19 50  1  0  0  0  0
 20 21  1  0  0  0  0
 21 51  1  0  0  0  0
 21 52  1  0  0  0  0
 21 53  1  0  0  0  0
 22 23  2  0  0  0  0
 23 24  1  0  0  0  0
 23 26  1  0  0  0  0
 24 25  2  0  0  0  0
 26 27  1  0  0  0  0
 26 54  1  0  0  0  0
 27 28  1  0  0  0  0
 27 55  1  0  0  0  0
 27 56  1  0  0  0  0
 28 29  1  0  0  0  0
 28 57  1  0  0  0  0
 28 58  1  0  0  0  0
 29 34  1  0  0  0  0
 29 30  1  0  0  0  0
 29 67  1  0  0  0  0
 30 31  1  0  0  0  0
 30 59  1  0  0  0  0
 30 60  1  0  0  0  0
 31 32  1  0  0  0  0
 31 61  1  0  0  0  0
 31 62  1  0  0  0  0
 32 33  1  0  0  0  0
 33 34  1  0  0  0  0
 33 63  1  0  0  0  0
 33 64  1  0  0  0  0
 34 65  1  0  0  0  0
 34 66  1  0  0  0  0
M  CHG  1  29   1
M  END
$$$$
CHEMBL308828
  -OEChem-07121202283D

 50 54  0     1  0  0  0  0  0999 V2000
   -0.0178    1.4608    0.0101 C   0  0  0  0  0  0  0  0  0  0  0  0
    0.0021   -0.0041    0.0020 N   0  0  0  0  0  0  0  0  0  0  0  0
    0.0054   -0.6566   -1.1744 C   0  0  0  0  0  0  0  0  0  0  0  0
   -0.0086   -0.0384   -2.2231 O   0  0  0  0  0  0  0  0  0  0  0  0
    0.0266   -2.1195   -1.1760 C   0  0  0  0  0  0  0  0  0  0  0  0
    0.0433   -2.7825    0.0421 C   0  0  0  0  0  0  0  0  0  0  0  0
    0.0609   -4.1122   -0.2441 N   0  0  0  0  0  0  0  0  0  0  0  0
    0.0544   -4.2410   -1.6028 C   0  0  0  0  0  0  0  0  0  0  0  0
    0.0342   -3.0611   -2.1514 N   0  0  0  0  0  0  0  0  0  0  0  0
    0.0757   -4.8371    0.4003 H   0  0  0  0  0  0  0  0  0  0  0  0
    0.0688   -5.5483   -2.3523 C   0  0  0  0  0  0  0  0  0  0  0  0
   -1.1182   -5.5965   -3.3164 C   0  0  0  0  0  0  0  0  0  0  0  0
   -2.4236   -5.6020   -2.5184 C   0  0  0  0  0  0  0  0  0  0  0  0
   -3.6106   -5.6502   -3.4825 C   0  0  0  0  0  0  0  0  0  0  0  0
   -3.5267   -6.9202   -4.3316 C   0  0  0  0  0  0  0  0  0  0  0  0
   -2.2213   -6.9148   -5.1297 C   0  0  0  0  0  0  0  0  0  0  0  0
   -1.0343   -6.8665   -4.1655 C   0  0  0  0  0  0  0  0  0  0  0  0
    0.0392   -2.0608    1.2171 N   0  0  0  0  0  0  0  0  0  0  0  0
    0.0228   -0.6900    1.2075 C   0  0  0  0  0  0  0  0  0  0  0  0
    0.0234   -0.1690    2.4049 N   0  3  0  0  0  0  0  0  0  0  0  0
    0.0512   -1.2158    3.4291 C   0  0  1  0  0  0  0  0  0  0  0  0
   -0.8090   -1.1564    4.0959 H   0  0  0  0  0  0  0  0  0  0  0  0
    0.0527   -2.5299    2.6141 C   0  0  2  0  0  0  0  0  0  0  0  0
   -0.7982   -3.1714    2.8434 H   0  0  0  0  0  0  0  0  0  0  0  0
    1.4050   -3.2098    2.9065 C   0  0  0  0  0  0  0  0  0  0  0  0
    2.3282   -2.0502    3.3548 C   0  0  0  0  0  0  0  0  0  0  0  0
    1.3840   -1.1431    4.2016 C   0  0  0  0  0  0  0  0  0  0  0  0
    1.0048    1.8381    0.0023 H   0  0  0  0  0  0  0  0  0  0  0  0
   -0.5450    1.8219   -0.8730 H   0  0  0  0  0  0  0  0  0  0  0  0
   -0.5280    1.8123    0.9069 H   0  0  0  0  0  0  0  0  0  0  0  0
    0.9981   -5.6339   -2.9155 H   0  0  0  0  0  0  0  0  0  0  0  0
   -0.0043   -6.3738   -1.6443 H   0  0  0  0  0  0  0  0  0  0  0  0
   -1.0937   -4.7223   -3.9669 H   0  0  0  0  0  0  0  0  0  0  0  0
   -2.4481   -6.4762   -1.8678 H   0  0  0  0  0  0  0  0  0  0  0  0
   -2.4834   -4.6972   -1.9134 H   0  0  0  0  0  0  0  0  0  0  0  0
   -4.5405   -5.6541   -2.9139 H   0  0  0  0  0  0  0  0  0  0  0  0
   -3.5861   -4.7760   -4.1330 H   0  0  0  0  0  0  0  0  0  0  0  0
   -3.5512   -7.7945   -3.6811 H   0  0  0  0  0  0  0  0  0  0  0  0
   -4.3723   -6.9546   -5.0184 H   0  0  0  0  0  0  0  0  0  0  0  0
   -2.1615   -7.8195   -5.7346 H   0  0  0  0  0  0  0  0  0  0  0  0
   -2.1968   -6.0405   -5.7802 H   0  0  0  0  0  0  0  0  0  0  0  0
   -0.1043   -6.8627   -4.7341 H   0  0  0  0  0  0  0  0  0  0  0  0
   -1.0588   -7.7408   -3.5150 H   0  0  0  0  0  0  0  0  0  0  0  0
    1.2979   -3.9426    3.7062 H   0  0  0  0  0  0  0  0  0  0  0  0
    1.7966   -3.6821    2.0056 H   0  0  0  0  0  0  0  0  0  0  0  0
    3.1471   -2.4240    3.9694 H   0  0  0  0  0  0  0  0  0  0  0  0
    2.7094   -1.5042    2.4919 H   0  0  0  0  0  0  0  0  0  0  0  0
    1.7438   -0.1152    4.2454 H   0  0  0  0  0  0  0  0  0  0  0  0
    1.2652   -1.5496    5.2060 H   0  0  0  0  0  0  0  0  0  0  0  0
    0.0076    0.7828    2.5910 H   0  0  0  0  0  0  0  0  0  0  0  0
  1  2  1  0  0  0  0
  1 28  1  0  0  0  0
  1 29  1  0  0  0  0
  1 30  1  0  0  0  0
  2 19  1  0  0  0  0
  2  3  1  0  0  0  0
  3  4  2  0  0  0  0
  3  5  1  0  0  0  0
  5  9  1  0  0  0  0
  5  6  2  0  0  0  0
  6 18  1  0  0  0  0
  6  7  1  0  0  0  0
  7  8  1  0  0  0  0
  7 10  1  0  0  0  0
  8 11  1  0  0  0  0
  8  9  2  0  0  0  0
 11 12  1  0  0  0  0
 11 31  1  0  0  0  0
 11 32  1  0  0  0  0
 12 17  1  0  0  0  0
 12 13  1  0  0  0  0
 12 33  1  0  0  0  0
 13 14  1  0  0  0  0
 13 34  1  0  0  0  0
 13 35  1  0  0  0  0
 14 15  1  0  0  0  0
 14 36  1  0  0  0  0
 14 37  1  0  0  0  0
 15 16  1  0  0  0  0
 15 38  1  0  0  0  0
 15 39  1  0  0  0  0
 16 17  1  0  0  0  0
 16 40  1  0  0  0  0
 16 41  1  0  0  0  0
 17 42  1  0  0  0  0
 17 43  1  0  0  0  0
 18 23  1  0  0  0  0
 18 19  1  0  0  0  0
 19 20  2  0  0  0  0
 20 21  1  0  0  0  0
 20 50  1  0  0  0  0
 21 22  1  0  0  0  0
 21 27  1  0  0  0  0
 21 23  1  0  0  0  0
 23 24  1  0  0  0  0
 23 25  1  0  0  0  0
 25 26  1  0  0  0  0
 25 44  1  0  0  0  0
 25 45  1  0  0  0  0
 26 27  1  0  0  0  0
 26 46  1  0  0  0  0
 26 47  1  0  0  0  0
 27 48  1  0  0  0  0
 27 49  1  0  0  0  0
M  CHG  1  20   1
M  END
$$$$
CHEMBL308828
  -OEChem-07121202283D

 51 55  0     1  0  0  0  0  0999 V2000
   -0.0178    1.4608    0.0101 C   0  0  0  0  0  0  0  0  0  0  0  0
    0.0021   -0.0041    0.0020 N   0  0  0  0  0  0  0  0  0  0  0  0
    0.0054   -0.6573   -1.1733 C   0  0  0  0  0  0  0  0  0  0  0  0
   -0.0083   -0.0326   -2.2187 O   0  0  0  0  0  0  0  0  0  0  0  0
    0.0253   -2.0678   -1.1930 C   0  0  0  0  0  0  0  0  0  0  0  0
    0.0428   -2.7648    0.0060 C   0  0  0  0  0  0  0  0  0  0  0  0
    0.0601   -4.0673   -0.2928 N   0  3  0  0  0  0  0  0  0  0  0  0
    0.0542   -4.2242   -1.5919 C   0  0  0  0  0  0  0  0  0  0  0  0
    0.0329   -3.0197   -2.1947 N   0  0  0  0  0  0  0  0  0  0  0  0
    0.0240   -2.8524   -3.1501 H   0  0  0  0  0  0  0  0  0  0  0  0
    0.0695   -5.5513   -2.3056 C   0  0  0  0  0  0  0  0  0  0  0  0
   -1.3677   -6.0220   -2.5381 C   0  0  0  0  0  0  0  0  0  0  0  0
   -2.0392   -6.2947   -1.1906 C   0  0  0  0  0  0  0  0  0  0  0  0
   -3.4763   -6.7654   -1.4230 C   0  0  0  0  0  0  0  0  0  0  0  0
   -3.4643   -8.0488   -2.2559 C   0  0  0  0  0  0  0  0  0  0  0  0
   -2.7928   -7.7760   -3.6034 C   0  0  0  0  0  0  0  0  0  0  0  0
   -1.3556   -7.3054   -3.3709 C   0  0  0  0  0  0  0  0  0  0  0  0
    0.0390   -2.0621    1.2023 N   0  0  0  0  0  0  0  0  0  0  0  0
    0.0228   -0.6909    1.2067 C   0  0  0  0  0  0  0  0  0  0  0  0
    0.0232   -0.1825    2.4083 N   0  3  0  0  0  0  0  0  0  0  0  0
    0.0515   -1.2406    3.4216 C   0  0  1  0  0  0  0  0  0  0  0  0
   -0.8088   -1.1891    4.0888 H   0  0  0  0  0  0  0  0  0  0  0  0
    0.0538   -2.5462    2.5925 C   0  0  2  0  0  0  0  0  0  0  0  0
   -0.7960   -3.1915    2.8149 H   0  0  0  0  0  0  0  0  0  0  0  0
    1.4070   -3.2270    2.8788 C   0  0  0  0  0  0  0  0  0  0  0  0
    2.3282   -2.0707    3.3395 C   0  0  0  0  0  0  0  0  0  0  0  0
    1.3841   -1.1747    4.1950 C   0  0  0  0  0  0  0  0  0  0  0  0
    1.0048    1.8381    0.0023 H   0  0  0  0  0  0  0  0  0  0  0  0
   -0.5450    1.8219   -0.8730 H   0  0  0  0  0  0  0  0  0  0  0  0
   -0.5280    1.8123    0.9069 H   0  0  0  0  0  0  0  0  0  0  0  0
    0.5757   -5.4423   -3.2648 H   0  0  0  0  0  0  0  0  0  0  0  0
    0.5982   -6.2851   -1.6972 H   0  0  0  0  0  0  0  0  0  0  0  0
   -1.9217   -5.2487   -3.0702 H   0  0  0  0  0  0  0  0  0  0  0  0
   -1.4852   -7.0680   -0.6585 H   0  0  0  0  0  0  0  0  0  0  0  0
   -2.0478   -5.3804   -0.5973 H   0  0  0  0  0  0  0  0  0  0  0  0
   -3.9547   -6.9597   -0.4631 H   0  0  0  0  0  0  0  0  0  0  0  0
   -4.0303   -5.9921   -1.9552 H   0  0  0  0  0  0  0  0  0  0  0  0
   -2.9103   -8.8221   -1.7238 H   0  0  0  0  0  0  0  0  0  0  0  0
   -4.4882   -8.3841   -2.4215 H   0  0  0  0  0  0  0  0  0  0  0  0
   -2.7842   -8.6903   -4.1967 H   0  0  0  0  0  0  0  0  0  0  0  0
   -3.3468   -7.0027   -4.1355 H   0  0  0  0  0  0  0  0  0  0  0  0
   -0.8772   -7.1110   -4.3309 H   0  0  0  0  0  0  0  0  0  0  0  0
   -0.8016   -8.0787   -2.8388 H   0  0  0  0  0  0  0  0  0  0  0  0
    1.3006   -3.9681    3.6710 H   0  0  0  0  0  0  0  0  0  0  0  0
    1.7999   -3.6895    1.9734 H   0  0  0  0  0  0  0  0  0  0  0  0
    3.1475   -2.4495    3.9506 H   0  0  0  0  0  0  0  0  0  0  0  0
    2.7088   -1.5152    2.4825 H   0  0  0  0  0  0  0  0  0  0  0  0
    1.7428   -0.1468    4.2495 H   0  0  0  0  0  0  0  0  0  0  0  0
    1.2656   -1.5917    5.1951 H   0  0  0  0  0  0  0  0  0  0  0  0
    0.0072    0.7673    2.6043 H   0  0  0  0  0  0  0  0  0  0  0  0
    0.0748   -4.7883    0.3560 H   0  0  0  0  0  0  0  0  0  0  0  0
  1  2  1  0  0  0  0
  1 28  1  0  0  0  0
  1 29  1  0  0  0  0
  1 30  1  0  0  0  0
  2 19  1  0  0  0  0
  2  3  1  0  0  0  0
  3  4  2  0  0  0  0
  3  5  1  0  0  0  0
  5  9  1  0  0  0  0
  5  6  2  0  0  0  0
  6  7  1  0  0  0  0
  6 18  1  0  0  0  0
  7  8  2  0  0  0  0
  7 51  1  0  0  0  0
  8  9  1  0  0  0  0
  8 11  1  0  0  0  0
  9 10  1  0  0  0  0
 11 12  1  0  0  0  0
 11 31  1  0  0  0  0
 11 32  1  0  0  0  0
 12 17  1  0  0  0  0
 12 13  1  0  0  0  0
 12 33  1  0  0  0  0
 13 14  1  0  0  0  0
 13 34  1  0  0  0  0
 13 35  1  0  0  0  0
 14 15  1  0  0  0  0
 14 36  1  0  0  0  0
 14 37  1  0  0  0  0
 15 16  1  0  0  0  0
 15 38  1  0  0  0  0
 15 39  1  0  0  0  0
 16 17  1  0  0  0  0
 16 40  1  0  0  0  0
 16 41  1  0  0  0  0
 17 42  1  0  0  0  0
 17 43  1  0  0  0  0
 18 23  1  0  0  0  0
 18 19  1  0  0  0  0
 19 20  2  0  0  0  0
 20 21  1  0  0  0  0
 20 50  1  0  0  0  0
 21 22  1  0  0  0  0
 21 27  1  0  0  0  0
 21 23  1  0  0  0  0
 23 24  1  0  0  0  0
 23 25  1  0  0  0  0
 25 26  1  0  0  0  0
 25 44  1  0  0  0  0
 25 45  1  0  0  0  0
 26 27  1  0  0  0  0
 26 46  1  0  0  0  0
 26 47  1  0  0  0  0
 27 48  1  0  0  0  0
 27 49  1  0  0  0  0
M  CHG  2   7   1  20   1
M  END
$$$$
CHEMBL308828
  -OEChem-07121202283D

 50 54  0     1  0  0  0  0  0999 V2000
   -0.0178    1.4608    0.0101 C   0  0  0  0  0  0  0  0  0  0  0  0
    0.0021   -0.0041    0.0020 N   0  0  0  0  0  0  0  0  0  0  0  0
    0.0054   -0.6573   -1.1733 C   0  0  0  0  0  0  0  0  0  0  0  0
   -0.0083   -0.0326   -2.2187 O   0  0  0  0  0  0  0  0  0  0  0  0
    0.0253   -2.0678   -1.1930 C   0  0  0  0  0  0  0  0  0  0  0  0
    0.0428   -2.7648    0.0060 C   0  0  0  0  0  0  0  0  0  0  0  0
    0.0601   -4.0673   -0.2928 N   0  0  0  0  0  0  0  0  0  0  0  0
    0.0542   -4.2242   -1.5919 C   0  0  0  0  0  0  0  0  0  0  0  0
    0.0329   -3.0197   -2.1947 N   0  0  0  0  0  0  0  0  0  0  0  0
    0.0240   -2.8524   -3.1501 H   0  0  0  0  0  0  0  0  0  0  0  0
    0.0695   -5.5513   -2.3056 C   0  0  0  0  0  0  0  0  0  0  0  0
    1.2662   -6.3749   -1.8255 C   0  0  0  0  0  0  0  0  0  0  0  0
    2.5639   -5.6778   -2.2393 C   0  0  0  0  0  0  0  0  0  0  0  0
    3.7606   -6.5014   -1.7592 C   0  0  0  0  0  0  0  0  0  0  0  0
    3.7067   -7.8945   -2.3893 C   0  0  0  0  0  0  0  0  0  0  0  0
    2.4091   -8.5916   -1.9756 C   0  0  0  0  0  0  0  0  0  0  0  0
    1.2123   -7.7680   -2.4557 C   0  0  0  0  0  0  0  0  0  0  0  0
    0.0390   -2.0621    1.2023 N   0  0  0  0  0  0  0  0  0  0  0  0
    0.0228   -0.6909    1.2067 C   0  0  0  0  0  0  0  0  0  0  0  0
    0.0232   -0.1825    2.4083 N   0  3  0  0  0  0  0  0  0  0  0  0
    0.0515   -1.2406    3.4216 C   0  0  1  0  0  0  0  0  0  0  0  0
   -0.8088   -1.1891    4.0888 H   0  0  0  0  0  0  0  0  0  0  0  0
    0.0538   -2.5462    2.5925 C   0  0  2  0  0  0  0  0  0  0  0  0
   -0.7960   -3.1915    2.8149 H   0  0  0  0  0  0  0  0  0  0  0  0
    1.4070   -3.2270    2.8788 C   0  0  0  0  0  0  0  0  0  0  0  0
    2.3282   -2.0707    3.3395 C   0  0  0  0  0  0  0  0  0  0  0  0
    1.3841   -1.1747    4.1950 C   0  0  0  0  0  0  0  0  0  0  0  0
    1.0048    1.8381    0.0023 H   0  0  0  0  0  0  0  0  0  0  0  0
   -0.5450    1.8219   -0.8730 H   0  0  0  0  0  0  0  0  0  0  0  0
   -0.5280    1.8123    0.9069 H   0  0  0  0  0  0  0  0  0  0  0  0
   -0.8528   -6.0907   -2.0897 H   0  0  0  0  0  0  0  0  0  0  0  0
    0.1502   -5.3853   -3.3799 H   0  0  0  0  0  0  0  0  0  0  0  0
    1.2327   -6.4656   -0.7398 H   0  0  0  0  0  0  0  0  0  0  0  0
    2.5974   -5.5871   -3.3250 H   0  0  0  0  0  0  0  0  0  0  0  0
    2.6023   -4.6853   -1.7903 H   0  0  0  0  0  0  0  0  0  0  0  0
    4.6851   -6.0048   -2.0539 H   0  0  0  0  0  0  0  0  0  0  0  0
    3.7271   -6.5921   -0.6735 H   0  0  0  0  0  0  0  0  0  0  0  0
    3.7402   -7.8038   -3.4750 H   0  0  0  0  0  0  0  0  0  0  0  0
    4.5593   -8.4812   -2.0473 H   0  0  0  0  0  0  0  0  0  0  0  0
    2.3707   -9.5841   -2.4245 H   0  0  0  0  0  0  0  0  0  0  0  0
    2.3756   -8.6823   -0.8899 H   0  0  0  0  0  0  0  0  0  0  0  0
    0.2879   -8.2646   -2.1609 H   0  0  0  0  0  0  0  0  0  0  0  0
    1.2458   -7.6773   -3.5414 H   0  0  0  0  0  0  0  0  0  0  0  0
    1.3006   -3.9681    3.6710 H   0  0  0  0  0  0  0  0  0  0  0  0
    1.7999   -3.6895    1.9734 H   0  0  0  0  0  0  0  0  0  0  0  0
    3.1475   -2.4495    3.9506 H   0  0  0  0  0  0  0  0  0  0  0  0
    2.7088   -1.5152    2.4825 H   0  0  0  0  0  0  0  0  0  0  0  0
    1.7428   -0.1468    4.2495 H   0  0  0  0  0  0  0  0  0  0  0  0
    1.2656   -1.5917    5.1951 H   0  0  0  0  0  0  0  0  0  0  0  0
    0.0072    0.7673    2.6043 H   0  0  0  0  0  0  0  0  0  0  0  0
  1  2  1  0  0  0  0
  1 28  1  0  0  0  0
  1 29  1  0  0  0  0
  1 30  1  0  0  0  0
  2 19  1  0  0  0  0
  2  3  1  0  0  0  0
  3  4  2  0  0  0  0
  3  5  1  0  0  0  0
  5  9  1  0  0  0  0
  5  6  2  0  0  0  0
  6  7  1  0  0  0  0
  6 18  1  0  0  0  0
  7  8  2  0  0  0  0
  8  9  1  0  0  0  0
  8 11  1  0  0  0  0
  9 10  1  0  0  0  0
 11 12  1  0  0  0  0
 11 31  1  0  0  0  0
 11 32  1  0  0  0  0
 12 17  1  0  0  0  0
 12 13  1  0  0  0  0
 12 33  1  0  0  0  0
 13 14  1  0  0  0  0
 13 34  1  0  0  0  0
 13 35  1  0  0  0  0
 14 15  1  0  0  0  0
 14 36  1  0  0  0  0
 14 37  1  0  0  0  0
 15 16  1  0  0  0  0
 15 38  1  0  0  0  0
 15 39  1  0  0  0  0
 16 17  1  0  0  0  0
 16 40  1  0  0  0  0
 16 41  1  0  0  0  0
 17 42  1  0  0  0  0
 17 43  1  0  0  0  0
 18 23  1  0  0  0  0
 18 19  1  0  0  0  0
 19 20  2  0  0  0  0
 20 21  1  0  0  0  0
 20 50  1  0  0  0  0
 21 22  1  0  0  0  0
 21 27  1  0  0  0  0
 21 23  1  0  0  0  0
 23 24  1  0  0  0  0
 23 25  1  0  0  0  0
 25 26  1  0  0  0  0
 25 44  1  0  0  0  0
 25 45  1  0  0  0  0
 26 27  1  0  0  0  0
 26 46  1  0  0  0  0
 26 47  1  0  0  0  0
 27 48  1  0  0  0  0
 27 49  1  0  0  0  0
M  CHG  1  20   1
M  END
$$$$
CHEMBL46771
  -OEChem-07121202283D

 54 57  0     0  0  0  0  0  0999 V2000
   -0.0143    1.5096    0.4144 C   0  0  0  0  0  0  0  0  0  0  0  0
    0.0009   -0.0052    0.1995 C   0  0  0  0  0  0  0  0  0  0  0  0
   -1.4324   -0.5394    0.2323 C   0  0  0  0  0  0  0  0  0  0  0  0
   -1.4182   -1.9541    0.0317 O   0  0  0  0  0  0  0  0  0  0  0  0
   -2.6185   -2.5890    0.0327 C   0  0  0  0  0  0  0  0  0  0  0  0
   -3.7867   -1.8658    0.2170 C   0  0  0  0  0  0  0  0  0  0  0  0
   -5.0081   -2.5091    0.2179 C   0  0  0  0  0  0  0  0  0  0  0  0
   -5.0763   -3.8862    0.0346 C   0  0  0  0  0  0  0  0  0  0  0  0
   -3.9178   -4.6212   -0.1506 C   0  0  0  0  0  0  0  0  0  0  0  0
   -2.6795   -3.9757   -0.1584 C   0  0  0  0  0  0  0  0  0  0  0  0
   -1.4407   -4.7511   -0.3612 C   0  0  0  0  0  0  0  0  0  0  0  0
   -0.2929   -4.1158   -0.3528 N   0  0  0  0  0  0  0  0  0  0  0  0
    0.8693   -4.7557   -0.5304 C   0  0  0  0  0  0  0  0  0  0  0  0
    0.8658   -6.1466   -0.7319 C   0  0  0  0  0  0  0  0  0  0  0  0
    2.2054   -6.5488   -0.8880 C   0  0  0  0  0  0  0  0  0  0  0  0
    2.9656   -5.4932   -0.7904 N   0  0  0  0  0  0  0  0  0  0  0  0
    2.1703   -4.3621   -0.5682 N   0  0  0  0  0  0  0  0  0  0  0  0
    2.6567   -2.9898   -0.4051 C   0  0  0  0  0  0  0  0  0  0  0  0
    2.6808   -7.9589   -1.1265 C   0  0  0  0  0  0  0  0  0  0  0  0
   -0.4204   -6.8428   -0.7398 C   0  0  0  0  0  0  0  0  0  0  0  0
   -1.5364   -6.1023   -0.5446 N   0  0  0  0  0  0  0  0  0  0  0  0
   -0.4845   -8.0474   -0.9100 O   0  0  0  0  0  0  0  0  0  0  0  0
   -6.3197   -4.5309    0.0379 N   0  0  0  0  0  0  0  0  0  0  0  0
   -7.4075   -3.8993   -0.4463 C   0  0  0  0  0  0  0  0  0  0  0  0
   -7.2934   -2.8096   -0.9733 O   0  0  0  0  0  0  0  0  0  0  0  0
   -8.7380   -4.5311   -0.3368 C   0  0  0  0  0  0  0  0  0  0  0  0
   -8.8727   -5.7802    0.2732 C   0  0  0  0  0  0  0  0  0  0  0  0
  -10.1167   -6.3652    0.3726 C   0  0  0  0  0  0  0  0  0  0  0  0
  -11.2332   -5.7161   -0.1319 C   0  0  0  0  0  0  0  0  0  0  0  0
  -11.1053   -4.4758   -0.7385 C   0  0  0  0  0  0  0  0  0  0  0  0
   -9.8669   -3.8789   -0.8377 C   0  0  0  0  0  0  0  0  0  0  0  0
  -12.4502   -6.2944   -0.0326 F   0  0  0  0  0  0  0  0  0  0  0  0
    1.0068    1.8902    0.3910 H   0  0  0  0  0  0  0  0  0  0  0  0
   -0.5967    1.9829   -0.3762 H   0  0  0  0  0  0  0  0  0  0  0  0
   -0.4640    1.7349    1.3814 H   0  0  0  0  0  0  0  0  0  0  0  0
    0.4506   -0.2305   -0.7675 H   0  0  0  0  0  0  0  0  0  0  0  0
    0.5832   -0.4784    0.9901 H   0  0  0  0  0  0  0  0  0  0  0  0
   -1.8821   -0.3141    1.1994 H   0  0  0  0  0  0  0  0  0  0  0  0
   -2.0148   -0.0661   -0.5582 H   0  0  0  0  0  0  0  0  0  0  0  0
   -3.7412   -0.7963    0.3606 H   0  0  0  0  0  0  0  0  0  0  0  0
   -5.9150   -1.9406    0.3620 H   0  0  0  0  0  0  0  0  0  0  0  0
   -3.9718   -5.6904   -0.2928 H   0  0  0  0  0  0  0  0  0  0  0  0
    2.8512   -2.7963    0.6498 H   0  0  0  0  0  0  0  0  0  0  0  0
    3.5774   -2.8606   -0.9740 H   0  0  0  0  0  0  0  0  0  0  0  0
    1.9033   -2.2916   -0.7697 H   0  0  0  0  0  0  0  0  0  0  0  0
    2.7212   -8.1523   -2.1985 H   0  0  0  0  0  0  0  0  0  0  0  0
    3.6746   -8.0848   -0.6969 H   0  0  0  0  0  0  0  0  0  0  0  0
    1.9904   -8.6594   -0.6567 H   0  0  0  0  0  0  0  0  0  0  0  0
   -6.3980   -5.4318    0.3887 H   0  0  0  0  0  0  0  0  0  0  0  0
   -8.0036   -6.2870    0.6659 H   0  0  0  0  0  0  0  0  0  0  0  0
  -10.2220   -7.3312    0.8441 H   0  0  0  0  0  0  0  0  0  0  0  0
  -11.9782   -3.9747   -1.1301 H   0  0  0  0  0  0  0  0  0  0  0  0
   -9.7689   -2.9108   -1.3063 H   0  0  0  0  0  0  0  0  0  0  0  0
   -2.4066   -6.5308   -0.5394 H   0  0  0  0  0  0  0  0  0  0  0  0
  1  2  1  0  0  0  0
  1 33  1  0  0  0  0
  1 34  1  0  0  0  0
  1 35  1  0  0  0  0
  2  3  1  0  0  0  0
  2 36  1  0  0  0  0
  2 37  1  0  0  0  0
  3  4  1  0  0  0  0
  3 38  1  0  0  0  0
  3 39  1  0  0  0  0
  4  5  1  0  0  0  0
  5 10  2  0  0  0  0
  5  6  1  0  0  0  0
  6  7  2  0  0  0  0
  6 40  1  0  0  0  0
  7  8  1  0  0  0  0
  7 41  1  0  0  0  0
  8  9  2  0  0  0  0
  8 23  1  0  0  0  0
  9 10  1  0  0  0  0
  9 42  1  0  0  0  0
 10 11  1  0  0  0  0
 11 21  1  0  0  0  0
 11 12  2  0  0  0  0
 12 13  1  0  0  0  0
 13 17  1  0  0  0  0
 13 14  2  0  0  0  0
 14 15  1  0  0  0  0
 14 20  1  0  0  0  0
 15 16  2  0  0  0  0
 15 19  1  0  0  0  0
 16 17  1  0  0  0  0
 17 18  1  0  0  0  0
 18 43  1  0  0  0  0
 18 44  1  0  0  0  0
 18 45  1  0  0  0  0
 19 46  1  0  0  0  0
 19 47  1  0  0  0  0
 19 48  1  0  0  0  0
 20 21  1  0  0  0  0
 20 22  2  0  0  0  0
 21 54  1  0  0  0  0
 23 24  1  0  0  0  0
 23 49  1  0  0  0  0
 24 25  2  0  0  0  0
 24 26  1  0  0  0  0
 26 31  2  0  0  0  0
 26 27  1  0  0  0  0
 27 28  2  0  0  0  0
 27 50  1  0  0  0  0
 28 29  1  0  0  0  0
 28 51  1  0  0  0  0
 29 30  2  0  0  0  0
 29 32  1  0  0  0  0
 30 31  1  0  0  0  0
 30 52  1  0  0  0  0
 31 53  1  0  0  0  0
M  END
$$$$
CHEMBL46621
  -OEChem-07121202283D

 65 68  0     0  0  0  0  0  0999 V2000
   -0.0398    1.5472   -0.0434 C   0  0  0  0  0  0  0  0  0  0  0  0
   -0.0137    0.0174   -0.0412 C   0  0  0  0  0  0  0  0  0  0  0  0
   -1.4473   -0.5171   -0.0240 C   0  0  0  0  0  0  0  0  0  0  0  0
   -1.4229   -1.9459   -0.0220 O   0  0  0  0  0  0  0  0  0  0  0  0
   -2.6220   -2.5828   -0.0073 C   0  0  0  0  0  0  0  0  0  0  0  0
   -3.7983   -1.8492   -0.0008 C   0  0  0  0  0  0  0  0  0  0  0  0
   -5.0184   -2.4948    0.0147 C   0  0  0  0  0  0  0  0  0  0  0  0
   -5.0774   -3.8843    0.0234 C   0  0  0  0  0  0  0  0  0  0  0  0
   -3.9109   -4.6296    0.0166 C   0  0  0  0  0  0  0  0  0  0  0  0
   -2.6733   -3.9829   -0.0044 C   0  0  0  0  0  0  0  0  0  0  0  0
   -1.4257   -4.7704   -0.0175 C   0  0  0  0  0  0  0  0  0  0  0  0
   -0.2796   -4.1321   -0.0262 N   0  0  0  0  0  0  0  0  0  0  0  0
    0.8904   -4.7825   -0.0378 C   0  0  0  0  0  0  0  0  0  0  0  0
    0.8970   -6.1878   -0.0407 C   0  0  0  0  0  0  0  0  0  0  0  0
    2.2431   -6.5986   -0.0533 C   0  0  0  0  0  0  0  0  0  0  0  0
    2.9975   -5.5344   -0.0578 N   0  0  0  0  0  0  0  0  0  0  0  0
    2.1919   -4.3889   -0.0484 N   0  0  0  0  0  0  0  0  0  0  0  0
    2.6696   -3.0039   -0.0494 C   0  0  0  0  0  0  0  0  0  0  0  0
    2.7299   -8.0248   -0.0600 C   0  0  0  0  0  0  0  0  0  0  0  0
   -0.3874   -6.8873   -0.0312 C   0  0  0  0  0  0  0  0  0  0  0  0
   -1.5121   -6.1346   -0.0143 N   0  0  0  0  0  0  0  0  0  0  0  0
   -0.4428   -8.1043   -0.0336 O   0  0  0  0  0  0  0  0  0  0  0  0
   -6.3203   -4.5312    0.0395 N   0  0  0  0  0  0  0  0  0  0  0  0
   -7.3522   -3.9914    0.7180 C   0  0  0  0  0  0  0  0  0  0  0  0
   -7.2300   -2.9056    1.2447 O   0  0  0  0  0  0  0  0  0  0  0  0
   -8.6577   -4.7369    0.8224 C   0  0  0  0  0  0  0  0  0  0  0  0
   -9.6136   -3.9430    1.6060 N   0  0  0  0  0  0  0  0  0  0  0  0
   -9.1749   -3.8195    3.0033 C   0  0  0  0  0  0  0  0  0  0  0  0
  -10.1640   -2.9382    3.7693 C   0  0  0  0  0  0  0  0  0  0  0  0
  -11.5031   -3.5389    3.7097 N   0  3  0  0  0  0  0  0  0  0  0  0
  -11.9376   -3.6331    2.3098 C   0  0  0  0  0  0  0  0  0  0  0  0
  -10.9632   -4.5202    1.5317 C   0  0  0  0  0  0  0  0  0  0  0  0
  -12.4487   -2.7021    4.4604 C   0  0  0  0  0  0  0  0  0  0  0  0
    0.9815    1.9279   -0.0557 H   0  0  0  0  0  0  0  0  0  0  0  0
   -0.5698    1.9003   -0.9280 H   0  0  0  0  0  0  0  0  0  0  0  0
   -0.5495    1.9031    0.8519 H   0  0  0  0  0  0  0  0  0  0  0  0
    0.4960   -0.3386   -0.9365 H   0  0  0  0  0  0  0  0  0  0  0  0
    0.5163   -0.3357    0.8433 H   0  0  0  0  0  0  0  0  0  0  0  0
   -1.9570   -0.1611    0.8713 H   0  0  0  0  0  0  0  0  0  0  0  0
   -1.9773   -0.1640   -0.9086 H   0  0  0  0  0  0  0  0  0  0  0  0
   -3.7600   -0.7699   -0.0074 H   0  0  0  0  0  0  0  0  0  0  0  0
   -5.9316   -1.9181    0.0204 H   0  0  0  0  0  0  0  0  0  0  0  0
   -3.9579   -5.7086    0.0233 H   0  0  0  0  0  0  0  0  0  0  0  0
    2.7972   -2.6629    0.9780 H   0  0  0  0  0  0  0  0  0  0  0  0
    3.6248   -2.9494   -0.5716 H   0  0  0  0  0  0  0  0  0  0  0  0
    1.9422   -2.3691   -0.5553 H   0  0  0  0  0  0  0  0  0  0  0  0
    2.8382   -8.3669   -1.0892 H   0  0  0  0  0  0  0  0  0  0  0  0
    3.6941   -8.0819    0.4452 H   0  0  0  0  0  0  0  0  0  0  0  0
    2.0097   -8.6570    0.4592 H   0  0  0  0  0  0  0  0  0  0  0  0
   -6.4380   -5.3675   -0.4376 H   0  0  0  0  0  0  0  0  0  0  0  0
   -9.0596   -4.9073   -0.1764 H   0  0  0  0  0  0  0  0  0  0  0  0
   -8.4908   -5.6947    1.3151 H   0  0  0  0  0  0  0  0  0  0  0  0
   -9.1379   -4.8078    3.4616 H   0  0  0  0  0  0  0  0  0  0  0  0
   -8.1841   -3.3662    3.0347 H   0  0  0  0  0  0  0  0  0  0  0  0
   -9.8482   -2.8569    4.8093 H   0  0  0  0  0  0  0  0  0  0  0  0
  -10.1907   -1.9459    3.3190 H   0  0  0  0  0  0  0  0  0  0  0  0
  -12.9367   -4.0670    2.2679 H   0  0  0  0  0  0  0  0  0  0  0  0
  -11.9551   -2.6372    1.8670 H   0  0  0  0  0  0  0  0  0  0  0  0
  -11.2771   -4.5781    0.4895 H   0  0  0  0  0  0  0  0  0  0  0  0
  -10.9556   -5.5200    1.9657 H   0  0  0  0  0  0  0  0  0  0  0  0
  -12.4781   -1.7045    4.0222 H   0  0  0  0  0  0  0  0  0  0  0  0
  -13.4425   -3.1477    4.4163 H   0  0  0  0  0  0  0  0  0  0  0  0
  -12.1272   -2.6331    5.4996 H   0  0  0  0  0  0  0  0  0  0  0  0
  -11.4757   -4.4621    4.1160 H   0  0  0  0  0  0  0  0  0  0  0  0
   -2.3817   -6.5643   -0.0039 H   0  0  0  0  0  0  0  0  0  0  0  0
  1  2  1  0  0  0  0
  1 34  1  0  0  0  0
  1 35  1  0  0  0  0
  1 36  1  0  0  0  0
  2  3  1  0  0  0  0
  2 37  1  0  0  0  0
  2 38  1  0  0  0  0
  3  4  1  0  0  0  0
  3 39  1  0  0  0  0
  3 40  1  0  0  0  0
  4  5  1  0  0  0  0
  5 10  2  0  0  0  0
  5  6  1  0  0  0  0
  6  7  2  0  0  0  0
  6 41  1  0  0  0  0
  7  8  1  0  0  0  0
  7 42  1  0  0  0  0
  8  9  2  0  0  0  0
  8 23  1  0  0  0  0
  9 10  1  0  0  0  0
  9 43  1  0  0  0  0
 10 11  1  0  0  0  0
 11 21  1  0  0  0  0
 11 12  2  0  0  0  0
 12 13  1  0  0  0  0
 13 17  1  0  0  0  0
 13 14  2  0  0  0  0
 14 15  1  0  0  0  0
 14 20  1  0  0  0  0
 15 16  2  0  0  0  0
 15 19  1  0  0  0  0
 16 17  1  0  0  0  0
 17 18  1  0  0  0  0
 18 44  1  0  0  0  0
 18 45  1  0  0  0  0
 18 46  1  0  0  0  0
 19 47  1  0  0  0  0
 19 48  1  0  0  0  0
 19 49  1  0  0  0  0
 20 21  1  0  0  0  0
 20 22  2  0  0  0  0
 21 65  1  0  0  0  0
 23 24  1  0  0  0  0
 23 50  1  0  0  0  0
 24 25  2  0  0  0  0
 24 26  1  0  0  0  0
 26 27  1  0  0  0  0
 26 51  1  0  0  0  0
 26 52  1  0  0  0  0
 27 32  1  0  0  0  0
 27 28  1  0  0  0  0
 28 29  1  0  0  0  0
 28 53  1  0  0  0  0
 28 54  1  0  0  0  0
 29 30  1  0  0  0  0
 29 55  1  0  0  0  0
 29 56  1  0  0  0  0
 30 31  1  0  0  0  0
 30 33  1  0  0  0  0
 30 64  1  0  0  0  0
 31 32  1  0  0  0  0
 31 57  1  0  0  0  0
 31 58  1  0  0  0  0
 32 59  1  0  0  0  0
 32 60  1  0  0  0  0
 33 61  1  0  0  0  0
 33 62  1  0  0  0  0
 33 63  1  0  0  0  0
M  CHG  1  30   1
M  END
$$$$
CHEMBL298478
  -OEChem-07121202283D

 51 54  0     0  0  0  0  0  0999 V2000
   -0.3697    1.5078   -0.1872 C   0  0  0  0  0  0  0  0  0  0  0  0
   -0.1676   -0.0062   -0.0970 C   0  0  0  0  0  0  0  0  0  0  0  0
    0.5284   -0.5042   -1.3653 C   0  0  0  0  0  0  0  0  0  0  0  0
    0.7171   -1.9182   -1.2810 O   0  0  0  0  0  0  0  0  0  0  0  0
    1.3258   -2.5227   -2.3336 C   0  0  0  0  0  0  0  0  0  0  0  0
    1.7385   -1.7709   -3.4228 C   0  0  0  0  0  0  0  0  0  0  0  0
    2.3576   -2.3834   -4.4939 C   0  0  0  0  0  0  0  0  0  0  0  0
    2.5719   -3.7577   -4.4890 C   0  0  0  0  0  0  0  0  0  0  0  0
    2.1649   -4.5209   -3.4080 C   0  0  0  0  0  0  0  0  0  0  0  0
    1.5433   -3.9067   -2.3187 C   0  0  0  0  0  0  0  0  0  0  0  0
    1.1117   -4.7124   -1.1604 C   0  0  0  0  0  0  0  0  0  0  0  0
    0.5207   -4.1062   -0.1583 N   0  0  0  0  0  0  0  0  0  0  0  0
    0.1030   -4.7748    0.9236 C   0  0  0  0  0  0  0  0  0  0  0  0
    0.3006   -6.1644    0.9932 C   0  0  0  0  0  0  0  0  0  0  0  0
   -0.2277   -6.5998    2.2229 C   0  0  0  0  0  0  0  0  0  0  0  0
   -0.7084   -5.5640    2.8535 N   0  0  0  0  0  0  0  0  0  0  0  0
   -0.5206   -4.4138    2.0768 N   0  0  0  0  0  0  0  0  0  0  0  0
   -0.9257   -3.0548    2.4442 C   0  0  0  0  0  0  0  0  0  0  0  0
   -0.2369   -8.0206    2.7253 C   0  0  0  0  0  0  0  0  0  0  0  0
    0.9607   -6.8280   -0.1305 C   0  0  0  0  0  0  0  0  0  0  0  0
    1.3395   -6.0601   -1.1787 N   0  0  0  0  0  0  0  0  0  0  0  0
    1.1585   -8.0302   -0.1253 O   0  0  0  0  0  0  0  0  0  0  0  0
    3.2002   -4.3708   -5.5802 N   0  0  0  0  0  0  0  0  0  0  0  0
    4.1533   -3.7105   -6.2673 C   0  0  0  0  0  0  0  0  0  0  0  0
    4.5362   -2.6209   -5.8829 O   0  0  0  0  0  0  0  0  0  0  0  0
    4.7288   -4.3044   -7.4773 C   0  0  0  0  0  0  0  0  0  0  0  0
    5.7110   -3.8003   -8.3163 C   0  0  0  0  0  0  0  0  0  0  0  0
    6.0483   -4.5951   -9.3855 C   0  0  0  0  0  0  0  0  0  0  0  0
    5.4184   -5.7850   -9.5469 C   0  0  0  0  0  0  0  0  0  0  0  0
    4.3540   -5.8668   -8.2497 S   0  0  0  0  0  0  0  0  0  0  0  0
    0.5986    1.9983   -0.2868 H   0  0  0  0  0  0  0  0  0  0  0  0
   -0.9861    1.7409   -1.0554 H   0  0  0  0  0  0  0  0  0  0  0  0
   -0.8656    1.8626    0.7163 H   0  0  0  0  0  0  0  0  0  0  0  0
    0.4488   -0.2394    0.7712 H   0  0  0  0  0  0  0  0  0  0  0  0
   -1.1359   -0.4967    0.0025 H   0  0  0  0  0  0  0  0  0  0  0  0
   -0.0880   -0.2710   -2.2335 H   0  0  0  0  0  0  0  0  0  0  0  0
    1.4967   -0.0137   -1.4648 H   0  0  0  0  0  0  0  0  0  0  0  0
    1.5750   -0.7034   -3.4335 H   0  0  0  0  0  0  0  0  0  0  0  0
    2.6767   -1.7927   -5.3399 H   0  0  0  0  0  0  0  0  0  0  0  0
    2.3314   -5.5880   -3.4053 H   0  0  0  0  0  0  0  0  0  0  0  0
   -1.9394   -2.8693    2.0890 H   0  0  0  0  0  0  0  0  0  0  0  0
   -0.8953   -2.9471    3.5285 H   0  0  0  0  0  0  0  0  0  0  0  0
   -0.2439   -2.3367    1.9885 H   0  0  0  0  0  0  0  0  0  0  0  0
    0.6741   -8.2113    3.2925 H   0  0  0  0  0  0  0  0  0  0  0  0
   -1.1038   -8.1730    3.3682 H   0  0  0  0  0  0  0  0  0  0  0  0
   -0.2877   -8.7050    1.8786 H   0  0  0  0  0  0  0  0  0  0  0  0
    2.9495   -5.2707   -5.8415 H   0  0  0  0  0  0  0  0  0  0  0  0
    6.1808   -2.8437   -8.1409 H   0  0  0  0  0  0  0  0  0  0  0  0
    6.8043   -4.2762  -10.0878 H   0  0  0  0  0  0  0  0  0  0  0  0
    5.5697   -6.5152  -10.3281 H   0  0  0  0  0  0  0  0  0  0  0  0
    1.7770   -6.4665   -1.9431 H   0  0  0  0  0  0  0  0  0  0  0  0
  1  2  1  0  0  0  0
  1 31  1  0  0  0  0
  1 32  1  0  0  0  0
  1 33  1  0  0  0  0
  2  3  1  0  0  0  0
  2 34  1  0  0  0  0
  2 35  1  0  0  0  0
  3  4  1  0  0  0  0
  3 36  1  0  0  0  0
  3 37  1  0  0  0  0
  4  5  1  0  0  0  0
  5 10  2  0  0  0  0
  5  6  1  0  0  0  0
  6  7  2  0  0  0  0
  6 38  1  0  0  0  0
  7  8  1  0  0  0  0
  7 39  1  0  0  0  0
  8  9  2  0  0  0  0
  8 23  1  0  0  0  0
  9 10  1  0  0  0  0
  9 40  1  0  0  0  0
 10 11  1  0  0  0  0
 11 21  1  0  0  0  0
 11 12  2  0  0  0  0
 12 13  1  0  0  0  0
 13 17  1  0  0  0  0
 13 14  2  0  0  0  0
 14 15  1  0  0  0  0
 14 20  1  0  0  0  0
 15 16  2  0  0  0  0
 15 19  1  0  0  0  0
 16 17  1  0  0  0  0
 17 18  1  0  0  0  0
 18 41  1  0  0  0  0
 18 42  1  0  0  0  0
 18 43  1  0  0  0  0
 19 44  1  0  0  0  0
 19 45  1  0  0  0  0
 19 46  1  0  0  0  0
 20 21  1  0  0  0  0
 20 22  2  0  0  0  0
 21 51  1  0  0  0  0
 23 24  1  0  0  0  0
 23 47  1  0  0  0  0
 24 25  2  0  0  0  0
 24 26  1  0  0  0  0
 26 30  1  0  0  0  0
 26 27  2  0  0  0  0
 27 28  1  0  0  0  0
 27 48  1  0  0  0  0
 28 29  2  0  0  0  0
 28 49  1  0  0  0  0
 29 30  1  0  0  0  0
 29 50  1  0  0  0  0
M  END
$$$$
CHEMBL42988
  -OEChem-07121202283D

 56 59  0     0  0  0  0  0  0999 V2000
    1.5277    1.8823   -0.3995 C   0  0  0  0  0  0  0  0  0  0  0  0
    1.1837    0.3941   -0.3099 C   0  0  0  0  0  0  0  0  0  0  0  0
    1.8022   -0.1968    0.9586 C   0  0  0  0  0  0  0  0  0  0  0  0
    1.4808   -1.5867    1.0423 O   0  0  0  0  0  0  0  0  0  0  0  0
    1.9571   -2.2659    2.1173 C   0  0  0  0  0  0  0  0  0  0  0  0
    2.7133   -1.6083    3.0753 C   0  0  0  0  0  0  0  0  0  0  0  0
    3.1985   -2.2971    4.1689 C   0  0  0  0  0  0  0  0  0  0  0  0
    2.9331   -3.6540    4.3183 C   0  0  0  0  0  0  0  0  0  0  0  0
    2.1795   -4.3235    3.3697 C   0  0  0  0  0  0  0  0  0  0  0  0
    1.6807   -3.6316    2.2638 C   0  0  0  0  0  0  0  0  0  0  0  0
    0.8711   -4.3367    1.2517 C   0  0  0  0  0  0  0  0  0  0  0  0
    0.4264   -3.6599    0.2196 N   0  0  0  0  0  0  0  0  0  0  0  0
   -0.3131   -4.2356   -0.7363 C   0  0  0  0  0  0  0  0  0  0  0  0
   -0.6246   -5.6023   -0.6365 C   0  0  0  0  0  0  0  0  0  0  0  0
   -1.4017   -5.9362   -1.7614 C   0  0  0  0  0  0  0  0  0  0  0  0
   -1.5535   -4.8641   -2.4890 N   0  0  0  0  0  0  0  0  0  0  0  0
   -0.8911   -3.7891   -1.8833 N   0  0  0  0  0  0  0  0  0  0  0  0
   -0.8313   -2.4185   -2.3972 C   0  0  0  0  0  0  0  0  0  0  0  0
   -1.9625   -7.2999   -2.0726 C   0  0  0  0  0  0  0  0  0  0  0  0
   -0.1223   -6.3454    0.5187 C   0  0  0  0  0  0  0  0  0  0  0  0
    0.6205   -5.6691    1.4257 N   0  0  0  0  0  0  0  0  0  0  0  0
   -0.3612   -7.5319    0.6578 O   0  0  0  0  0  0  0  0  0  0  0  0
    3.4302   -4.3453    5.4316 N   0  0  0  0  0  0  0  0  0  0  0  0
    3.5492   -3.7161    6.6175 C   0  0  0  0  0  0  0  0  0  0  0  0
    3.1385   -2.5789    6.7463 O   0  0  0  0  0  0  0  0  0  0  0  0
    4.1233   -4.3475    7.6607 N   0  0  0  0  0  0  0  0  0  0  0  0
    4.1499   -3.7364    8.9206 C   0  0  0  0  0  0  0  0  0  0  0  0
    3.1038   -2.9138    9.3164 C   0  0  0  0  0  0  0  0  0  0  0  0
    3.1319   -2.3120   10.5593 C   0  0  0  0  0  0  0  0  0  0  0  0
    4.2024   -2.5288   11.4104 C   0  0  0  0  0  0  0  0  0  0  0  0
    5.2467   -3.3489   11.0176 C   0  0  0  0  0  0  0  0  0  0  0  0
    5.2196   -3.9570    9.7778 C   0  0  0  0  0  0  0  0  0  0  0  0
    4.2283   -1.9389   12.6256 F   0  0  0  0  0  0  0  0  0  0  0  0
    2.6105    2.0035   -0.4328 H   0  0  0  0  0  0  0  0  0  0  0  0
    1.0871    2.3033   -1.3032 H   0  0  0  0  0  0  0  0  0  0  0  0
    1.1308    2.4002    0.4735 H   0  0  0  0  0  0  0  0  0  0  0  0
    0.1009    0.2729   -0.2767 H   0  0  0  0  0  0  0  0  0  0  0  0
    1.5806   -0.1238   -1.1830 H   0  0  0  0  0  0  0  0  0  0  0  0
    2.8849   -0.0756    0.9254 H   0  0  0  0  0  0  0  0  0  0  0  0
    1.4052    0.3211    1.8317 H   0  0  0  0  0  0  0  0  0  0  0  0
    2.9235   -0.5547    2.9655 H   0  0  0  0  0  0  0  0  0  0  0  0
    3.7873   -1.7797    4.9119 H   0  0  0  0  0  0  0  0  0  0  0  0
    1.9744   -5.3774    3.4865 H   0  0  0  0  0  0  0  0  0  0  0  0
    0.0381   -2.3114   -3.0460 H   0  0  0  0  0  0  0  0  0  0  0  0
   -1.7368   -2.2034   -2.9647 H   0  0  0  0  0  0  0  0  0  0  0  0
   -0.7507   -1.7210   -1.5635 H   0  0  0  0  0  0  0  0  0  0  0  0
   -2.9523   -7.3962   -1.6263 H   0  0  0  0  0  0  0  0  0  0  0  0
   -2.0375   -7.4240   -3.1529 H   0  0  0  0  0  0  0  0  0  0  0  0
   -1.3035   -8.0658   -1.6638 H   0  0  0  0  0  0  0  0  0  0  0  0
    3.6886   -5.2765    5.3485 H   0  0  0  0  0  0  0  0  0  0  0  0
    4.5181   -5.2251    7.5389 H   0  0  0  0  0  0  0  0  0  0  0  0
    2.2688   -2.7442    8.6527 H   0  0  0  0  0  0  0  0  0  0  0  0
    2.3185   -1.6718   10.8674 H   0  0  0  0  0  0  0  0  0  0  0  0
    6.0807   -3.5167   11.6829 H   0  0  0  0  0  0  0  0  0  0  0  0
    6.0320   -4.6005    9.4737 H   0  0  0  0  0  0  0  0  0  0  0  0
    0.9731   -6.1304    2.2028 H   0  0  0  0  0  0  0  0  0  0  0  0
  1  2  1  0  0  0  0
  1 34  1  0  0  0  0
  1 35  1  0  0  0  0
  1 36  1  0  0  0  0
  2  3  1  0  0  0  0
  2 37  1  0  0  0  0
  2 38  1  0  0  0  0
  3  4  1  0  0  0  0
  3 39  1  0  0  0  0
  3 40  1  0  0  0  0
  4  5  1  0  0  0  0
  5 10  2  0  0  0  0
  5  6  1  0  0  0  0
  6  7  2  0  0  0  0
  6 41  1  0  0  0  0
  7  8  1  0  0  0  0
  7 42  1  0  0  0  0
  8  9  2  0  0  0  0
  8 23  1  0  0  0  0
  9 10  1  0  0  0  0
  9 43  1  0  0  0  0
 10 11  1  0  0  0  0
 11 21  1  0  0  0  0
 11 12  2  0  0  0  0
 12 13  1  0  0  0  0
 13 17  1  0  0  0  0
 13 14  2  0  0  0  0
 14 15  1  0  0  0  0
 14 20  1  0  0  0  0
 15 16  2  0  0  0  0
 15 19  1  0  0  0  0
 16 17  1  0  0  0  0
 17 18  1  0  0  0  0
 18 44  1  0  0  0  0
 18 45  1  0  0  0  0
 18 46  1  0  0  0  0
 19 47  1  0  0  0  0
 19 48  1  0  0  0  0
 19 49  1  0  0  0  0
 20 21  1  0  0  0  0
 20 22  2  0  0  0  0
 21 56  1  0  0  0  0
 23 24  1  0  0  0  0
 23 50  1  0  0  0  0
 24 25  2  0  0  0  0
 24 26  1  0  0  0  0
 26 27  1  0  0  0  0
 26 51  1  0  0  0  0
 27 32  2  0  0  0  0
 27 28  1  0  0  0  0
 28 29  2  0  0  0  0
 28 52  1  0  0  0  0
 29 30  1  0  0  0  0
 29 53  1  0  0  0  0
 30 31  2  0  0  0  0
 30 33  1  0  0  0  0
 31 32  1  0  0  0  0
 31 54  1  0  0  0  0
 32 55  1  0  0  0  0
M  END
$$$$
CHEMBL269079
  -OEChem-07121202283D

 59 61  0     0  0  0  0  0  0999 V2000
   -0.7240    0.7021    0.2203 C   0  0  0  0  0  0  0  0  0  0  0  0
   -0.3980   -0.7885    0.1070 C   0  0  0  0  0  0  0  0  0  0  0  0
    0.3974   -1.0239   -1.1006 N   0  0  0  0  0  0  0  0  0  0  0  0
   -0.0980   -1.3064   -2.3427 C   0  0  0  0  0  0  0  0  0  0  0  0
    1.0146   -1.4547   -3.1903 C   0  0  0  0  0  0  0  0  0  0  0  0
    2.1696   -1.2494   -2.4007 C   0  0  0  0  0  0  0  0  0  0  0  0
    1.7943   -0.9922   -1.1811 N   0  0  0  0  0  0  0  0  0  0  0  0
    0.8065   -1.7533   -4.5504 C   0  0  0  0  0  0  0  0  0  0  0  0
   -0.5200   -1.8896   -4.9966 C   0  0  0  0  0  0  0  0  0  0  0  0
   -1.5664   -1.7245   -4.0805 C   0  0  0  0  0  0  0  0  0  0  0  0
   -1.3331   -1.4465   -2.8197 N   0  0  0  0  0  0  0  0  0  0  0  0
   -0.8049   -2.2008   -6.4070 C   0  0  0  0  0  0  0  0  0  0  0  0
    0.1087   -2.4407   -7.1733 O   0  0  0  0  0  0  0  0  0  0  0  0
   -2.0779   -2.2199   -6.8491 N   0  0  0  0  0  0  0  0  0  0  0  0
   -2.3614   -2.5297   -8.2526 C   0  0  0  0  0  0  0  0  0  0  0  0
   -3.8723   -2.4850   -8.4897 C   0  0  0  0  0  0  0  0  0  0  0  0
   -4.1683   -2.8085   -9.9555 C   0  0  0  0  0  0  0  0  0  0  0  0
   -5.6792   -2.7639  -10.1925 C   0  0  0  0  0  0  0  0  0  0  0  0
   -5.9752   -3.0874  -11.6583 C   0  0  0  0  0  0  0  0  0  0  0  0
   -7.3863   -3.0457  -11.8797 O   0  0  0  0  0  0  0  0  0  0  0  0
    1.8691   -1.9067   -5.4169 N   0  0  0  0  0  0  0  0  0  0  0  0
    3.2040   -2.2068   -4.8932 C   0  0  0  0  0  0  0  0  0  0  0  0
    4.1385   -2.5008   -6.0383 C   0  0  0  0  0  0  0  0  0  0  0  0
    4.2758   -3.7963   -6.5019 C   0  0  0  0  0  0  0  0  0  0  0  0
    5.1320   -4.0691   -7.5512 C   0  0  0  0  0  0  0  0  0  0  0  0
    5.8545   -3.0421   -8.1405 C   0  0  0  0  0  0  0  0  0  0  0  0
    5.7150   -1.7421   -7.6740 C   0  0  0  0  0  0  0  0  0  0  0  0
    4.8527   -1.4739   -6.6270 C   0  0  0  0  0  0  0  0  0  0  0  0
    6.6171   -0.4537   -8.4087 Cl  0  0  0  0  0  0  0  0  0  0  0  0
    6.6978   -3.3082   -9.1728 O   0  0  0  0  0  0  0  0  0  0  0  0
    6.7913   -4.6686   -9.5999 C   0  0  0  0  0  0  0  0  0  0  0  0
    0.2025    1.2733    0.2784 H   0  0  0  0  0  0  0  0  0  0  0  0
   -1.2911    1.0176   -0.6555 H   0  0  0  0  0  0  0  0  0  0  0  0
   -1.3158    0.8773    1.1188 H   0  0  0  0  0  0  0  0  0  0  0  0
    0.1691   -1.1040    0.9828 H   0  0  0  0  0  0  0  0  0  0  0  0
   -1.3245   -1.3597    0.0489 H   0  0  0  0  0  0  0  0  0  0  0  0
    3.1902   -1.2936   -2.7512 H   0  0  0  0  0  0  0  0  0  0  0  0
   -2.5867   -1.8283   -4.4189 H   0  0  0  0  0  0  0  0  0  0  0  0
   -2.8065   -2.0286   -6.2379 H   0  0  0  0  0  0  0  0  0  0  0  0
   -1.8714   -1.7960   -8.8927 H   0  0  0  0  0  0  0  0  0  0  0  0
   -1.9860   -3.5256   -8.4879 H   0  0  0  0  0  0  0  0  0  0  0  0
   -4.3623   -3.2187   -7.8495 H   0  0  0  0  0  0  0  0  0  0  0  0
   -4.2477   -1.4892   -8.2544 H   0  0  0  0  0  0  0  0  0  0  0  0
   -3.6783   -2.0749  -10.5956 H   0  0  0  0  0  0  0  0  0  0  0  0
   -3.7929   -3.8044  -10.1908 H   0  0  0  0  0  0  0  0  0  0  0  0
   -6.1692   -3.4975   -9.5524 H   0  0  0  0  0  0  0  0  0  0  0  0
   -6.0546   -1.7680   -9.9572 H   0  0  0  0  0  0  0  0  0  0  0  0
   -5.4852   -2.3538  -12.2984 H   0  0  0  0  0  0  0  0  0  0  0  0
   -5.5998   -4.0833  -11.8936 H   0  0  0  0  0  0  0  0  0  0  0  0
   -7.6476   -3.2415  -12.7899 H   0  0  0  0  0  0  0  0  0  0  0  0
    1.7323   -1.8159   -6.3729 H   0  0  0  0  0  0  0  0  0  0  0  0
    3.5754   -1.3492   -4.3321 H   0  0  0  0  0  0  0  0  0  0  0  0
    3.1499   -3.0749   -4.2363 H   0  0  0  0  0  0  0  0  0  0  0  0
    3.7132   -4.5958   -6.0429 H   0  0  0  0  0  0  0  0  0  0  0  0
    5.2391   -5.0813   -7.9121 H   0  0  0  0  0  0  0  0  0  0  0  0
    4.7405   -0.4623   -6.2660 H   0  0  0  0  0  0  0  0  0  0  0  0
    7.1381   -5.2865   -8.7716 H   0  0  0  0  0  0  0  0  0  0  0  0
    5.8108   -5.0153   -9.9261 H   0  0  0  0  0  0  0  0  0  0  0  0
    7.4965   -4.7419  -10.4279 H   0  0  0  0  0  0  0  0  0  0  0  0
  1  2  1  0  0  0  0
  1 32  1  0  0  0  0
  1 33  1  0  0  0  0
  1 34  1  0  0  0  0
  2  3  1  0  0  0  0
  2 35  1  0  0  0  0
  2 36  1  0  0  0  0
  3  7  1  0  0  0  0
  3  4  1  0  0  0  0
  4 11  2  0  0  0  0
  4  5  1  0  0  0  0
  5  6  1  0  0  0  0
  5  8  2  0  0  0  0
  6  7  2  0  0  0  0
  6 37  1  0  0  0  0
  8  9  1  0  0  0  0
  8 21  1  0  0  0  0
  9 10  2  0  0  0  0
  9 12  1  0  0  0  0
 10 11  1  0  0  0  0
 10 38  1  0  0  0  0
 12 13  2  0  0  0  0
 12 14  1  0  0  0  0
 14 15  1  0  0  0  0
 14 39  1  0  0  0  0
 15 16  1  0  0  0  0
 15 40  1  0  0  0  0
 15 41  1  0  0  0  0
 16 17  1  0  0  0  0
 16 42  1  0  0  0  0
 16 43  1  0  0  0  0
 17 18  1  0  0  0  0
 17 44  1  0  0  0  0
 17 45  1  0  0  0  0
 18 19  1  0  0  0  0
 18 46  1  0  0  0  0
 18 47  1  0  0  0  0
 19 20  1  0  0  0  0
 19 48  1  0  0  0  0
 19 49  1  0  0  0  0
 20 50  1  0  0  0  0
 21 22  1  0  0  0  0
 21 51  1  0  0  0  0
 22 23  1  0  0  0  0
 22 52  1  0  0  0  0
 22 53  1  0  0  0  0
 23 28  2  0  0  0  0
 23 24  1  0  0  0  0
 24 25  2  0  0  0  0
 24 54  1  0  0  0  0
 25 26  1  0  0  0  0
 25 55  1  0  0  0  0
 26 27  2  0  0  0  0
 26 30  1  0  0  0  0
 27 28  1  0  0  0  0
 27 29  1  0  0  0  0
 28 56  1  0  0  0  0
 30 31  1  0  0  0  0
 31 57  1  0  0  0  0
 31 58  1  0  0  0  0
 31 59  1  0  0  0  0
M  END
$$$$
CHEMBL284070
  -OEChem-07121202283D

 73 80  0     1  0  0  0  0  0999 V2000
   -0.2374    1.1659    0.2459 C   0  0  0  0  0  0  0  0  0  0  0  0
    0.8882    1.9729    0.2738 C   0  0  0  0  0  0  0  0  0  0  0  0
    2.1706    1.4540    0.2285 C   0  0  0  0  0  0  0  0  0  0  0  0
    2.2880    0.0677    0.1521 C   0  0  0  0  0  0  0  0  0  0  0  0
    1.1318   -0.7537    0.1227 C   0  0  0  0  0  0  0  0  0  0  0  0
   -0.1522   -0.2024    0.1707 C   0  0  0  0  0  0  0  0  0  0  0  0
    1.6121   -2.1181    0.0402 C   0  0  0  0  0  0  0  0  0  0  0  0
    2.9614   -2.0616    0.0242 C   0  0  0  0  0  0  0  0  0  0  0  0
    3.3740   -0.7575    0.0940 N   0  0  0  0  0  0  0  0  0  0  0  0
    4.2987   -0.4643    0.1011 H   0  0  0  0  0  0  0  0  0  0  0  0
    3.8472   -3.2835   -0.0649 C   0  0  2  0  0  0  0  0  0  0  0  0
    4.3051   -3.3376   -1.0526 H   0  0  0  0  0  0  0  0  0  0  0  0
    2.9920   -4.4687    0.1577 N   0  0  0  0  0  0  0  0  0  0  0  0
    1.7051   -4.5223   -0.5346 C   0  0  2  0  0  0  0  0  0  0  0  0
    1.8731   -4.3771   -1.6017 H   0  0  0  0  0  0  0  0  0  0  0  0
    0.8064   -3.3907   -0.0162 C   0  0  0  0  0  0  0  0  0  0  0  0
    1.0101   -5.8294   -0.3288 C   0  0  0  0  0  0  0  0  0  0  0  0
   -0.0244   -6.0235   -0.9313 O   0  0  0  0  0  0  0  0  0  0  0  0
    1.4547   -6.7945    0.4737 N   0  0  0  0  0  0  0  0  0  0  0  0
    2.6795   -6.6995    1.2504 C   0  0  0  0  0  0  0  0  0  0  0  0
    3.4213   -5.4330    0.9745 C   0  0  0  0  0  0  0  0  0  0  0  0
    4.4727   -5.2575    1.5530 O   0  0  0  0  0  0  0  0  0  0  0  0
    0.6634   -8.0228    0.5803 C   0  0  2  0  0  0  0  0  0  0  0  0
   -0.2290   -7.9523   -0.0416 H   0  0  0  0  0  0  0  0  0  0  0  0
    0.2720   -8.2829    2.0531 C   0  0  0  0  0  0  0  0  0  0  0  0
    0.4185   -9.8197    2.1843 C   0  0  0  0  0  0  0  0  0  0  0  0
    1.6128  -10.1194    1.3536 N   0  3  2  0  0  0  0  0  0  0  0  0
    1.5090   -9.2411    0.1653 C   0  0  0  0  0  0  0  0  0  0  0  0
    1.6027  -11.5296    0.9421 C   0  0  0  0  0  0  0  0  0  0  0  0
    1.7799  -12.4213    2.1727 C   0  0  0  0  0  0  0  0  0  0  0  0
    1.7695  -13.8679    1.7505 C   0  0  0  0  0  0  0  0  0  0  0  0
    2.8251  -14.6891    2.0999 C   0  0  0  0  0  0  0  0  0  0  0  0
    2.8058  -16.0183    1.7066 C   0  0  0  0  0  0  0  0  0  0  0  0
    1.7206  -16.4738    0.9733 C   0  0  0  0  0  0  0  0  0  0  0  0
    0.7017  -15.5941    0.6611 C   0  0  0  0  0  0  0  0  0  0  0  0
    0.7511  -14.3369    1.0567 N   0  0  0  0  0  0  0  0  0  0  0  0
    4.9185   -3.2175    0.9929 C   0  0  0  0  0  0  0  0  0  0  0  0
    6.2447   -3.3922    0.6433 C   0  0  0  0  0  0  0  0  0  0  0  0
    7.2311   -3.3320    1.6099 C   0  0  0  0  0  0  0  0  0  0  0  0
    6.8923   -3.0967    2.9326 C   0  0  0  0  0  0  0  0  0  0  0  0
    5.5564   -2.9208    3.2847 C   0  0  0  0  0  0  0  0  0  0  0  0
    4.5737   -2.9767    2.3097 C   0  0  0  0  0  0  0  0  0  0  0  0
    5.4847   -2.7062    4.6308 O   0  0  0  0  0  0  0  0  0  0  0  0
    6.7454   -3.1578    5.1598 C   0  0  0  0  0  0  0  0  0  0  0  0
    7.6575   -2.9923    4.0581 O   0  0  0  0  0  0  0  0  0  0  0  0
   -1.2129    1.6275    0.2892 H   0  0  0  0  0  0  0  0  0  0  0  0
    0.7608    3.0438    0.3326 H   0  0  0  0  0  0  0  0  0  0  0  0
    3.0401    2.0942    0.2509 H   0  0  0  0  0  0  0  0  0  0  0  0
   -1.0354   -0.8236    0.1495 H   0  0  0  0  0  0  0  0  0  0  0  0
    0.4453   -3.6391    0.9818 H   0  0  0  0  0  0  0  0  0  0  0  0
   -0.0396   -3.2579   -0.6905 H   0  0  0  0  0  0  0  0  0  0  0  0
    2.4316   -6.7519    2.3105 H   0  0  0  0  0  0  0  0  0  0  0  0
    3.3254   -7.5403    0.9974 H   0  0  0  0  0  0  0  0  0  0  0  0
    0.9559   -7.7710    2.7301 H   0  0  0  0  0  0  0  0  0  0  0  0
   -0.7575   -7.9764    2.2385 H   0  0  0  0  0  0  0  0  0  0  0  0
    0.5914  -10.1024    3.2227 H   0  0  0  0  0  0  0  0  0  0  0  0
   -0.4622  -10.3254    1.7884 H   0  0  0  0  0  0  0  0  0  0  0  0
    1.0187   -9.7732   -0.6498 H   0  0  0  0  0  0  0  0  0  0  0  0
    2.5021   -8.9156   -0.1444 H   0  0  0  0  0  0  0  0  0  0  0  0
    0.6528  -11.7605    0.4598 H   0  0  0  0  0  0  0  0  0  0  0  0
    2.4187  -11.7097    0.2423 H   0  0  0  0  0  0  0  0  0  0  0  0
    2.7298  -12.1903    2.6549 H   0  0  0  0  0  0  0  0  0  0  0  0
    0.9639  -12.2411    2.8725 H   0  0  0  0  0  0  0  0  0  0  0  0
    3.6546  -14.3000    2.6718 H   0  0  0  0  0  0  0  0  0  0  0  0
    3.6168  -16.6831    1.9649 H   0  0  0  0  0  0  0  0  0  0  0  0
    1.6725  -17.5032    0.6499 H   0  0  0  0  0  0  0  0  0  0  0  0
   -0.1469  -15.9411    0.0903 H   0  0  0  0  0  0  0  0  0  0  0  0
    6.5106   -3.5765   -0.3871 H   0  0  0  0  0  0  0  0  0  0  0  0
    8.2662   -3.4689    1.3340 H   0  0  0  0  0  0  0  0  0  0  0  0
    3.5373   -2.8361    2.5792 H   0  0  0  0  0  0  0  0  0  0  0  0
    7.0495   -2.5402    6.0049 H   0  0  0  0  0  0  0  0  0  0  0  0
    6.6845   -4.2060    5.4525 H   0  0  0  0  0  0  0  0  0  0  0  0
    2.4555   -9.9118    1.8681 H   0  0  0  0  0  0  0  0  0  0  0  0
  1  6  2  0  0  0  0
  1  2  1  0  0  0  0
  1 46  1  0  0  0  0
  2  3  2  0  0  0  0
  2 47  1  0  0  0  0
  3  4  1  0  0  0  0
  3 48  1  0  0  0  0
  4  9  1  0  0  0  0
  4  5  2  0  0  0  0
  5  6  1  0  0  0  0
  5  7  1  0  0  0  0
  6 49  1  0  0  0  0
  7 16  1  0  0  0  0
  7  8  2  0  0  0  0
  8  9  1  0  0  0  0
  8 11  1  0  0  0  0
  9 10  1  0  0  0  0
 11 12  1  0  0  0  0
 11 13  1  0  0  0  0
 11 37  1  0  0  0  0
 13 21  1  0  0  0  0
 13 14  1  0  0  0  0
 14 15  1  0  0  0  0
 14 16  1  0  0  0  0
 14 17  1  0  0  0  0
 16 50  1  0  0  0  0
 16 51  1  0  0  0  0
 17 18  2  0  0  0  0
 17 19  1  0  0  0  0
 19 20  1  0  0  0  0
 19 23  1  0  0  0  0
 20 21  1  0  0  0  0
 20 52  1  0  0  0  0
 20 53  1  0  0  0  0
 21 22  2  0  0  0  0
 23 24  1  0  0  0  0
 23 28  1  0  0  0  0
 23 25  1  0  0  0  0
 25 26  1  0  0  0  0
 25 54  1  0  0  0  0
 25 55  1  0  0  0  0
 26 27  1  0  0  0  0
 26 56  1  0  0  0  0
 26 57  1  0  0  0  0
 27 28  1  0  0  0  0
 27 29  1  0  0  0  0
 27 73  1  0  0  0  0
 28 58  1  0  0  0  0
 28 59  1  0  0  0  0
 29 30  1  0  0  0  0
 29 60  1  0  0  0  0
 29 61  1  0  0  0  0
 30 31  1  0  0  0  0
 30 62  1  0  0  0  0
 30 63  1  0  0  0  0
 31 36  2  0  0  0  0
 31 32  1  0  0  0  0
 32 33  2  0  0  0  0
 32 64  1  0  0  0  0
 33 34  1  0  0  0  0
 33 65  1  0  0  0  0
 34 35  2  0  0  0  0
 34 66  1  0  0  0  0
 35 36  1  0  0  0  0
 35 67  1  0  0  0  0
 37 42  2  0  0  0  0
 37 38  1  0  0  0  0
 38 39  2  0  0  0  0
 38 68  1  0  0  0  0
 39 40  1  0  0  0  0
 39 69  1  0  0  0  0
 40 45  1  0  0  0  0
 40 41  2  0  0  0  0
 41 42  1  0  0  0  0
 41 43  1  0  0  0  0
 42 70  1  0  0  0  0
 43 44  1  0  0  0  0
 44 45  1  0  0  0  0
 44 71  1  0  0  0  0
 44 72  1  0  0  0  0
M  CHG  1  27   1
M  END
$$$$
CHEMBL290694
  -OEChem-07121202283D

 52 55  0     0  0  0  0  0  0999 V2000
   -0.0187    1.5258    0.0104 C   0  0  0  0  0  0  0  0  0  0  0  0
    0.0021   -0.0041    0.0020 C   0  0  0  0  0  0  0  0  0  0  0  0
    0.7182   -0.4975   -1.2568 C   0  0  0  0  0  0  0  0  0  0  0  0
    0.7376   -1.9263   -1.2646 O   0  0  0  0  0  0  0  0  0  0  0  0
    1.3403   -2.5284   -2.3206 C   0  0  0  0  0  0  0  0  0  0  0  0
    1.9073   -1.7593   -3.3270 C   0  0  0  0  0  0  0  0  0  0  0  0
    2.5212   -2.3656   -4.4015 C   0  0  0  0  0  0  0  0  0  0  0  0
    2.5768   -3.7599   -4.4860 C   0  0  0  0  0  0  0  0  0  0  0  0
    2.0113   -4.5412   -3.4823 C   0  0  0  0  0  0  0  0  0  0  0  0
    1.3954   -3.9278   -2.3922 C   0  0  0  0  0  0  0  0  0  0  0  0
    0.7987   -4.7482   -1.3206 C   0  0  0  0  0  0  0  0  0  0  0  0
    0.2174   -4.1407   -0.3137 N   0  0  0  0  0  0  0  0  0  0  0  0
   -0.3446   -4.8219    0.6924 C   0  0  0  0  0  0  0  0  0  0  0  0
   -0.3139   -6.2268    0.6745 C   0  0  0  0  0  0  0  0  0  0  0  0
   -0.9686   -6.6732    1.8376 C   0  0  0  0  0  0  0  0  0  0  0  0
   -1.3668   -5.6295    2.5113 N   0  0  0  0  0  0  0  0  0  0  0  0
   -0.9967   -4.4631    1.8303 N   0  0  0  0  0  0  0  0  0  0  0  0
   -1.2653   -3.0914    2.2692 C   0  0  0  0  0  0  0  0  0  0  0  0
   -2.6126   -2.6313    1.7089 C   0  0  0  0  0  0  0  0  0  0  0  0
   -1.1746   -8.1117    2.2367 C   0  0  0  0  0  0  0  0  0  0  0  0
    0.3375   -6.8918   -0.4536 C   0  0  0  0  0  0  0  0  0  0  0  0
    0.8698   -6.1095   -1.4213 N   0  0  0  0  0  0  0  0  0  0  0  0
    0.3947   -8.1068   -0.5221 O   0  0  0  0  0  0  0  0  0  0  0  0
    3.2359   -4.4048   -5.6418 C   0  0  0  0  0  0  0  0  0  0  0  0
    3.8322   -3.8498   -6.6877 N   0  0  0  0  0  0  0  0  0  0  0  0
    4.3714   -4.5838   -7.6332 C   0  0  0  0  0  0  0  0  0  0  0  0
    4.3233   -5.9394   -7.5488 C   0  0  0  0  0  0  0  0  0  0  0  0
    3.4501   -6.1431   -6.0014 S   0  0  0  0  0  0  0  0  0  0  0  0
    5.0421   -3.9243   -8.8106 C   0  0  0  0  0  0  0  0  0  0  0  0
    1.0039    1.9031    0.0027 H   0  0  0  0  0  0  0  0  0  0  0  0
   -0.5459    1.8868   -0.8726 H   0  0  0  0  0  0  0  0  0  0  0  0
   -0.5289    1.8773    0.9072 H   0  0  0  0  0  0  0  0  0  0  0  0
    0.5293   -0.3651    0.8851 H   0  0  0  0  0  0  0  0  0  0  0  0
   -1.0205   -0.3814    0.0098 H   0  0  0  0  0  0  0  0  0  0  0  0
    0.1910   -0.1364   -2.1398 H   0  0  0  0  0  0  0  0  0  0  0  0
    1.7408   -0.1202   -1.2645 H   0  0  0  0  0  0  0  0  0  0  0  0
    1.8671   -0.6817   -3.2680 H   0  0  0  0  0  0  0  0  0  0  0  0
    2.9605   -1.7614   -5.1814 H   0  0  0  0  0  0  0  0  0  0  0  0
    2.0532   -5.6185   -3.5456 H   0  0  0  0  0  0  0  0  0  0  0  0
   -1.2940   -3.0574    3.3583 H   0  0  0  0  0  0  0  0  0  0  0  0
   -0.4766   -2.4326    1.9058 H   0  0  0  0  0  0  0  0  0  0  0  0
   -2.8125   -1.6108    2.0355 H   0  0  0  0  0  0  0  0  0  0  0  0
   -2.5840   -2.6653    0.6199 H   0  0  0  0  0  0  0  0  0  0  0  0
   -3.4013   -3.2901    2.0724 H   0  0  0  0  0  0  0  0  0  0  0  0
   -0.3309   -8.4455    2.8408 H   0  0  0  0  0  0  0  0  0  0  0  0
   -2.0937   -8.2000    2.8160 H   0  0  0  0  0  0  0  0  0  0  0  0
   -1.2481   -8.7301    1.3421 H   0  0  0  0  0  0  0  0  0  0  0  0
    4.7096   -6.6866   -8.2262 H   0  0  0  0  0  0  0  0  0  0  0  0
    6.0967   -3.7653   -8.5858 H   0  0  0  0  0  0  0  0  0  0  0  0
    4.9501   -4.5655   -9.6873 H   0  0  0  0  0  0  0  0  0  0  0  0
    4.5645   -2.9651   -9.0104 H   0  0  0  0  0  0  0  0  0  0  0  0
    1.3062   -6.5159   -2.1864 H   0  0  0  0  0  0  0  0  0  0  0  0
  1  2  1  0  0  0  0
  1 30  1  0  0  0  0
  1 31  1  0  0  0  0
  1 32  1  0  0  0  0
  2  3  1  0  0  0  0
  2 33  1  0  0  0  0
  2 34  1  0  0  0  0
  3  4  1  0  0  0  0
  3 35  1  0  0  0  0
  3 36  1  0  0  0  0
  4  5  1  0  0  0  0
  5 10  2  0  0  0  0
  5  6  1  0  0  0  0
  6  7  2  0  0  0  0
  6 37  1  0  0  0  0
  7  8  1  0  0  0  0
  7 38  1  0  0  0  0
  8  9  2  0  0  0  0
  8 24  1  0  0  0  0
  9 10  1  0  0  0  0
  9 39  1  0  0  0  0
 10 11  1  0  0  0  0
 11 22  1  0  0  0  0
 11 12  2  0  0  0  0
 12 13  1  0  0  0  0
 13 17  1  0  0  0  0
 13 14  2  0  0  0  0
 14 15  1  0  0  0  0
 14 21  1  0  0  0  0
 15 16  2  0  0  0  0
 15 20  1  0  0  0  0
 16 17  1  0  0  0  0
 17 18  1  0  0  0  0
 18 19  1  0  0  0  0
 18 40  1  0  0  0  0
 18 41  1  0  0  0  0
 19 42  1  0  0  0  0
 19 43  1  0  0  0  0
 19 44  1  0  0  0  0
 20 45  1  0  0  0  0
 20 46  1  0  0  0  0
 20 47  1  0  0  0  0
 21 22  1  0  0  0  0
 21 23  2  0  0  0  0
 22 52  1  0  0  0  0
 24 28  1  0  0  0  0
 24 25  2  0  0  0  0
 25 26  1  0  0  0  0
 26 27  2  0  0  0  0
 26 29  1  0  0  0  0
 27 28  1  0  0  0  0
 27 48  1  0  0  0  0
 29 49  1  0  0  0  0
 29 50  1  0  0  0  0
 29 51  1  0  0  0  0
M  END
$$$$
CHEMBL562208
  -OEChem-07121202283D

 57 61  0     0  0  0  0  0  0999 V2000
   -0.0167    1.3821    0.0096 C   0  0  0  0  0  0  0  0  0  0  0  0
    1.1937    2.0586    0.0017 C   0  0  0  0  0  0  0  0  0  0  0  0
    2.3701    1.3338   -0.0134 C   0  0  0  0  0  0  0  0  0  0  0  0
    2.3500    0.0151   -0.0207 N   0  0  0  0  0  0  0  0  0  0  0  0
    1.2181   -0.6611   -0.0136 C   0  0  0  0  0  0  0  0  0  0  0  0
    0.0021   -0.0041    0.0020 C   0  0  0  0  0  0  0  0  0  0  0  0
    1.2505   -2.1677   -0.0230 C   0  0  0  0  0  0  0  0  0  0  0  0
    1.3677   -2.6450   -1.4031 N   0  0  0  0  0  0  0  0  0  0  0  0
    0.2368   -2.8922   -2.1554 C   0  0  0  0  0  0  0  0  0  0  0  0
    0.3630   -3.3502   -3.4809 C   0  0  0  0  0  0  0  0  0  0  0  0
   -0.7994   -3.5965   -4.2314 C   0  0  0  0  0  0  0  0  0  0  0  0
   -2.0147   -3.3805   -3.6422 C   0  0  0  0  0  0  0  0  0  0  0  0
   -2.0698   -2.9251   -2.3221 C   0  0  0  0  0  0  0  0  0  0  0  0
   -0.9631   -2.6984   -1.6286 N   0  0  0  0  0  0  0  0  0  0  0  0
   -3.3879   -2.6916   -1.6868 C   0  0  0  0  0  0  0  0  0  0  0  0
   -4.5612   -2.9311   -2.4016 C   0  0  0  0  0  0  0  0  0  0  0  0
   -5.7858   -2.7128   -1.8058 C   0  0  0  0  0  0  0  0  0  0  0  0
   -5.8515   -2.2558   -0.4991 C   0  0  0  0  0  0  0  0  0  0  0  0
   -4.6883   -2.0159    0.2151 C   0  0  0  0  0  0  0  0  0  0  0  0
   -3.4591   -2.2372   -0.3701 C   0  0  0  0  0  0  0  0  0  0  0  0
   -7.0534   -2.0429    0.0802 F   0  0  0  0  0  0  0  0  0  0  0  0
    1.5763   -3.5529   -4.0302 N   0  0  0  0  0  0  0  0  0  0  0  0
    2.6703   -3.3289   -3.3463 C   0  0  0  0  0  0  0  0  0  0  0  0
    2.5832   -2.8433   -1.9568 C   0  0  0  0  0  0  0  0  0  0  0  0
    3.5947   -2.6276   -1.3153 O   0  0  0  0  0  0  0  0  0  0  0  0
    3.9072   -3.5432   -3.9287 N   0  0  0  0  0  0  0  0  0  0  0  0
    3.9931   -4.0208   -5.3110 C   0  0  0  0  0  0  0  0  0  0  0  0
    5.4630   -4.1735   -5.7075 C   0  0  0  0  0  0  0  0  0  0  0  0
    6.1351   -2.7971   -5.7228 C   0  0  0  0  0  0  0  0  0  0  0  0
    7.5829   -2.9502   -6.1963 C   0  0  0  0  0  0  0  0  0  0  0  0
    7.5981   -3.5576   -7.4898 O   0  0  0  0  0  0  0  0  0  0  0  0
    7.0251   -4.8662   -7.5266 C   0  0  0  0  0  0  0  0  0  0  0  0
    5.5549   -4.7901   -7.1066 C   0  0  0  0  0  0  0  0  0  0  0  0
   -0.9518    1.9222    0.0259 H   0  0  0  0  0  0  0  0  0  0  0  0
    1.2167    3.1384    0.0069 H   0  0  0  0  0  0  0  0  0  0  0  0
    3.3170    1.8532   -0.0197 H   0  0  0  0  0  0  0  0  0  0  0  0
   -0.9217   -0.5635    0.0082 H   0  0  0  0  0  0  0  0  0  0  0  0
    2.1058   -2.5163    0.5559 H   0  0  0  0  0  0  0  0  0  0  0  0
    0.3315   -2.5537    0.4181 H   0  0  0  0  0  0  0  0  0  0  0  0
   -0.7345   -3.9479   -5.2506 H   0  0  0  0  0  0  0  0  0  0  0  0
   -2.9258   -3.5604   -4.1935 H   0  0  0  0  0  0  0  0  0  0  0  0
   -4.5110   -3.2866   -3.4202 H   0  0  0  0  0  0  0  0  0  0  0  0
   -6.6950   -2.8980   -2.3586 H   0  0  0  0  0  0  0  0  0  0  0  0
   -4.7445   -1.6595    1.2330 H   0  0  0  0  0  0  0  0  0  0  0  0
   -2.5532   -2.0543    0.1887 H   0  0  0  0  0  0  0  0  0  0  0  0
    4.7173   -3.3771   -3.4218 H   0  0  0  0  0  0  0  0  0  0  0  0
    3.4924   -4.9854   -5.3939 H   0  0  0  0  0  0  0  0  0  0  0  0
    3.5106   -3.3028   -5.9742 H   0  0  0  0  0  0  0  0  0  0  0  0
    5.9688   -4.8198   -4.9902 H   0  0  0  0  0  0  0  0  0  0  0  0
    5.5974   -2.1367   -6.4031 H   0  0  0  0  0  0  0  0  0  0  0  0
    6.1232   -2.3747   -4.7181 H   0  0  0  0  0  0  0  0  0  0  0  0
    8.0535   -1.9685   -6.2501 H   0  0  0  0  0  0  0  0  0  0  0  0
    8.1307   -3.5781   -5.4935 H   0  0  0  0  0  0  0  0  0  0  0  0
    7.0939   -5.2647   -8.5388 H   0  0  0  0  0  0  0  0  0  0  0  0
    7.5656   -5.5191   -6.8413 H   0  0  0  0  0  0  0  0  0  0  0  0
    5.1280   -5.7929   -7.0915 H   0  0  0  0  0  0  0  0  0  0  0  0
    5.0054   -4.1699   -7.8148 H   0  0  0  0  0  0  0  0  0  0  0  0
  1  6  2  0  0  0  0
  1  2  1  0  0  0  0
  1 34  1  0  0  0  0
  2  3  2  0  0  0  0
  2 35  1  0  0  0  0
  3  4  1  0  0  0  0
  3 36  1  0  0  0  0
  4  5  2  0  0  0  0
  5  6  1  0  0  0  0
  5  7  1  0  0  0  0
  6 37  1  0  0  0  0
  7  8  1  0  0  0  0
  7 38  1  0  0  0  0
  7 39  1  0  0  0  0
  8 24  1  0  0  0  0
  8  9  1  0  0  0  0
  9 14  2  0  0  0  0
  9 10  1  0  0  0  0
 10 11  2  0  0  0  0
 10 22  1  0  0  0  0
 11 12  1  0  0  0  0
 11 40  1  0  0  0  0
 12 13  2  0  0  0  0
 12 41  1  0  0  0  0
 13 14  1  0  0  0  0
 13 15  1  0  0  0  0
 15 20  2  0  0  0  0
 15 16  1  0  0  0  0
 16 17  2  0  0  0  0
 16 42  1  0  0  0  0
 17 18  1  0  0  0  0
 17 43  1  0  0  0  0
 18 19  2  0  0  0  0
 18 21  1  0  0  0  0
 19 20  1  0  0  0  0
 19 44  1  0  0  0  0
 20 45  1  0  0  0  0
 22 23  2  0  0  0  0
 23 24  1  0  0  0  0
 23 26  1  0  0  0  0
 24 25  2  0  0  0  0
 26 27  1  0  0  0  0
 26 46  1  0  0  0  0
 27 28  1  0  0  0  0
 27 47  1  0  0  0  0
 27 48  1  0  0  0  0
 28 33  1  0  0  0  0
 28 29  1  0  0  0  0
 28 49  1  0  0  0  0
 29 30  1  0  0  0  0
 29 50  1  0  0  0  0
 29 51  1  0  0  0  0
 30 31  1  0  0  0  0
 30 52  1  0  0  0  0
 30 53  1  0  0  0  0
 31 32  1  0  0  0  0
 32 33  1  0  0  0  0
 32 54  1  0  0  0  0
 32 55  1  0  0  0  0
 33 56  1  0  0  0  0
 33 57  1  0  0  0  0
M  END
$$$$
CHEMBL327772
  -OEChem-07121202283D

 77 80  0     0  0  0  0  0  0999 V2000
   10.4166  -11.1688    7.2934 C   0  0  0  0  0  0  0  0  0  0  0  0
    9.1251  -11.0230    6.4861 C   0  0  0  0  0  0  0  0  0  0  0  0
    8.9890   -9.5793    5.9982 C   0  0  0  0  0  0  0  0  0  0  0  0
    7.7827   -9.4431    5.2442 O   0  0  0  0  0  0  0  0  0  0  0  0
    7.5093   -8.2146    4.7355 C   0  0  0  0  0  0  0  0  0  0  0  0
    8.3846   -7.1615    4.9509 C   0  0  0  0  0  0  0  0  0  0  0  0
    8.1053   -5.9118    4.4327 C   0  0  0  0  0  0  0  0  0  0  0  0
    6.9520   -5.7013    3.6955 C   0  0  0  0  0  0  0  0  0  0  0  0
    6.0708   -6.7377    3.4720 C   0  0  0  0  0  0  0  0  0  0  0  0
    6.3442   -8.0070    3.9858 C   0  0  0  0  0  0  0  0  0  0  0  0
    5.4079   -9.1228    3.7450 C   0  0  0  0  0  0  0  0  0  0  0  0
    5.5591  -10.3555    4.1893 N   0  0  0  0  0  0  0  0  0  0  0  0
    3.8924   -8.2493    2.5994 H   0  0  0  0  0  0  0  0  0  0  0  0
    4.5344  -11.1088    3.7922 C   0  0  0  0  0  0  0  0  0  0  0  0
    3.6805  -10.2999    3.0490 C   0  0  0  0  0  0  0  0  0  0  0  0
    4.2490   -9.0397    3.0341 N   0  0  0  0  0  0  0  0  0  0  0  0
    2.5048  -10.8579    2.5060 C   0  0  0  0  0  0  0  0  0  0  0  0
    1.7419  -10.1698    1.8514 O   0  0  0  0  0  0  0  0  0  0  0  0
    2.2346  -12.1624    2.7191 N   0  0  0  0  0  0  0  0  0  0  0  0
    3.0675  -12.9336    3.4389 C   0  0  0  0  0  0  0  0  0  0  0  0
    2.7911  -14.1054    3.6097 O   0  0  0  0  0  0  0  0  0  0  0  0
    4.2001  -12.4419    3.9752 N   0  0  0  0  0  0  0  0  0  0  0  0
    5.0810  -13.3167    4.7529 C   0  0  0  0  0  0  0  0  0  0  0  0
    4.6691  -13.2761    6.2259 C   0  0  0  0  0  0  0  0  0  0  0  0
    3.2682  -13.8715    6.3803 C   0  0  0  0  0  0  0  0  0  0  0  0
    5.6636  -14.0900    7.0562 C   0  0  0  0  0  0  0  0  0  0  0  0
    1.0144  -12.7472    2.1577 C   0  0  0  0  0  0  0  0  0  0  0  0
    6.6091   -4.1018    3.0409 S   0  0  0  0  0  0  0  0  0  0  0  0
    5.2023   -4.0330    2.8526 O   0  0  0  0  0  0  0  0  0  0  0  0
    7.3157   -3.1717    3.8502 O   0  0  0  0  0  0  0  0  0  0  0  0
    7.2923   -4.0327    1.5340 N   0  0  0  0  0  0  0  0  0  0  0  0
    8.6763   -3.5698    1.3607 C   0  0  0  0  0  0  0  0  0  0  0  0
    9.4643   -4.6508    0.6107 C   0  0  0  0  0  0  0  0  0  0  0  0
    8.6976   -5.0518   -0.5773 N   0  0  0  0  0  0  0  0  0  0  0  0
    7.3136   -5.5147   -0.4040 C   0  0  0  0  0  0  0  0  0  0  0  0
    6.5274   -4.4390    0.3466 C   0  0  0  0  0  0  0  0  0  0  0  0
    9.2536   -4.9956   -1.8037 C   0  0  0  0  0  0  0  0  0  0  0  0
   10.1621   -4.2181   -2.0243 O   0  0  0  0  0  0  0  0  0  0  0  0
    8.8027   -5.8012   -2.7856 N   0  0  0  0  0  0  0  0  0  0  0  0
    9.2815   -5.6214   -4.1585 C   0  0  0  0  0  0  0  0  0  0  0  0
    7.8337   -6.8566   -2.4801 C   0  0  0  0  0  0  0  0  0  0  0  0
   11.2694  -10.9163    6.6633 H   0  0  0  0  0  0  0  0  0  0  0  0
   10.3868  -10.4967    8.1510 H   0  0  0  0  0  0  0  0  0  0  0  0
   10.5136  -12.1973    7.6410 H   0  0  0  0  0  0  0  0  0  0  0  0
    9.1549  -11.6951    5.6285 H   0  0  0  0  0  0  0  0  0  0  0  0
    8.2723  -11.2755    7.1162 H   0  0  0  0  0  0  0  0  0  0  0  0
    8.9592   -8.9072    6.8558 H   0  0  0  0  0  0  0  0  0  0  0  0
    9.8418   -9.3267    5.3681 H   0  0  0  0  0  0  0  0  0  0  0  0
    9.2860   -7.3182    5.5248 H   0  0  0  0  0  0  0  0  0  0  0  0
    8.7900   -5.0943    4.6038 H   0  0  0  0  0  0  0  0  0  0  0  0
    5.1722   -6.5691    2.8972 H   0  0  0  0  0  0  0  0  0  0  0  0
    4.9994  -14.3380    4.3809 H   0  0  0  0  0  0  0  0  0  0  0  0
    6.1115  -12.9753    4.6543 H   0  0  0  0  0  0  0  0  0  0  0  0
    4.6652  -12.2431    6.5737 H   0  0  0  0  0  0  0  0  0  0  0  0
    3.2721  -14.9046    6.0325 H   0  0  0  0  0  0  0  0  0  0  0  0
    2.9748  -13.8426    7.4296 H   0  0  0  0  0  0  0  0  0  0  0  0
    2.5597  -13.2917    5.7887 H   0  0  0  0  0  0  0  0  0  0  0  0
    6.6616  -13.6658    6.9462 H   0  0  0  0  0  0  0  0  0  0  0  0
    5.3701  -14.0610    8.1055 H   0  0  0  0  0  0  0  0  0  0  0  0
    5.6675  -15.1230    6.7084 H   0  0  0  0  0  0  0  0  0  0  0  0
    0.4641  -11.9827    1.6092 H   0  0  0  0  0  0  0  0  0  0  0  0
    1.2789  -13.5600    1.4814 H   0  0  0  0  0  0  0  0  0  0  0  0
    0.3922  -13.1340    2.9648 H   0  0  0  0  0  0  0  0  0  0  0  0
    8.6832   -2.6452    0.7834 H   0  0  0  0  0  0  0  0  0  0  0  0
    9.1294   -3.3978    2.3370 H   0  0  0  0  0  0  0  0  0  0  0  0
   10.4316   -4.2523    0.3045 H   0  0  0  0  0  0  0  0  0  0  0  0
    9.6105   -5.5139    1.2602 H   0  0  0  0  0  0  0  0  0  0  0  0
    6.8604   -5.6867   -1.3803 H   0  0  0  0  0  0  0  0  0  0  0  0
    7.3066   -6.4393    0.1733 H   0  0  0  0  0  0  0  0  0  0  0  0
    5.5617   -4.8408    0.6534 H   0  0  0  0  0  0  0  0  0  0  0  0
    6.3778   -3.5777   -0.3045 H   0  0  0  0  0  0  0  0  0  0  0  0
   10.1710   -6.2314   -4.3158 H   0  0  0  0  0  0  0  0  0  0  0  0
    8.5031   -5.9268   -4.8577 H   0  0  0  0  0  0  0  0  0  0  0  0
    9.5266   -4.5722   -4.3233 H   0  0  0  0  0  0  0  0  0  0  0  0
    6.8843   -6.6297   -2.9651 H   0  0  0  0  0  0  0  0  0  0  0  0
    8.2096   -7.8120   -2.8463 H   0  0  0  0  0  0  0  0  0  0  0  0
    7.6864   -6.9135   -1.4016 H   0  0  0  0  0  0  0  0  0  0  0  0
  1  2  1  0  0  0  0
  1 42  1  0  0  0  0
  1 43  1  0  0  0  0
  1 44  1  0  0  0  0
  2  3  1  0  0  0  0
  2 45  1  0  0  0  0
  2 46  1  0  0  0  0
  3  4  1  0  0  0  0
  3 47  1  0  0  0  0
  3 48  1  0  0  0  0
  4  5  1  0  0  0  0
  5 10  2  0  0  0  0
  5  6  1  0  0  0  0
  6  7  2  0  0  0  0
  6 49  1  0  0  0  0
  7  8  1  0  0  0  0
  7 50  1  0  0  0  0
  8  9  2  0  0  0  0
  8 28  1  0  0  0  0
  9 10  1  0  0  0  0
  9 51  1  0  0  0  0
 10 11  1  0  0  0  0
 11 16  1  0  0  0  0
 11 12  2  0  0  0  0
 12 14  1  0  0  0  0
 13 16  1  0  0  0  0
 14 22  1  0  0  0  0
 14 15  2  0  0  0  0
 15 17  1  0  0  0  0
 15 16  1  0  0  0  0
 17 19  1  0  0  0  0
 17 18  2  0  0  0  0
 19 20  1  0  0  0  0
 19 27  1  0  0  0  0
 20 22  1  0  0  0  0
 20 21  2  0  0  0  0
 22 23  1  0  0  0  0
 23 24  1  0  0  0  0
 23 52  1  0  0  0  0
 23 53  1  0  0  0  0
 24 25  1  0  0  0  0
 24 26  1  0  0  0  0
 24 54  1  0  0  0  0
 25 55  1  0  0  0  0
 25 56  1  0  0  0  0
 25 57  1  0  0  0  0
 26 58  1  0  0  0  0
 26 59  1  0  0  0  0
 26 60  1  0  0  0  0
 27 61  1  0  0  0  0
 27 62  1  0  0  0  0
 27 63  1  0  0  0  0
 28 29  2  0  0  0  0
 28 30  2  0  0  0  0
 28 31  1  0  0  0  0
 31 36  1  0  0  0  0
 31 32  1  0  0  0  0
 32 33  1  0  0  0  0
 32 64  1  0  0  0  0
 32 65  1  0  0  0  0
 33 34  1  0  0  0  0
 33 66  1  0  0  0  0
 33 67  1  0  0  0  0
 34 35  1  0  0  0  0
 34 37  1  0  0  0  0
 35 36  1  0  0  0  0
 35 68  1  0  0  0  0
 35 69  1  0  0  0  0
 36 70  1  0  0  0  0
 36 71  1  0  0  0  0
 37 38  2  0  0  0  0
 37 39  1  0  0  0  0
 39 40  1  0  0  0  0
 39 41  1  0  0  0  0
 40 72  1  0  0  0  0
 40 73  1  0  0  0  0
 40 74  1  0  0  0  0
 41 75  1  0  0  0  0
 41 76  1  0  0  0  0
 41 77  1  0  0  0  0
M  END
$$$$
CHEMBL344676
  -OEChem-07121202283D

 62 67  0     1  0  0  0  0  0999 V2000
    0.3080    1.3747   -0.2149 C   0  0  0  0  0  0  0  0  0  0  0  0
    0.0020   -0.0042    0.0020 O   0  0  0  0  0  0  0  0  0  0  0  0
    0.6258   -0.6185    1.0414 C   0  0  0  0  0  0  0  0  0  0  0  0
    1.5097    0.0928    1.8398 C   0  0  0  0  0  0  0  0  0  0  0  0
    2.1421   -0.5338    2.8962 C   0  0  0  0  0  0  0  0  0  0  0  0
    1.8951   -1.8688    3.1577 C   0  0  0  0  0  0  0  0  0  0  0  0
    1.0149   -2.5801    2.3632 C   0  0  0  0  0  0  0  0  0  0  0  0
    0.3753   -1.9564    1.3094 C   0  0  0  0  0  0  0  0  0  0  0  0
    2.5867   -2.5500    4.3104 C   0  0  1  0  0  0  0  0  0  0  0  0
    3.3304   -1.8834    4.7469 H   0  0  0  0  0  0  0  0  0  0  0  0
    1.5713   -2.9561    5.3603 C   0  0  0  0  0  0  0  0  0  0  0  0
    1.2501   -4.2382    5.6336 C   0  0  0  0  0  0  0  0  0  0  0  0
    0.2465   -4.2032    6.6815 C   0  0  0  0  0  0  0  0  0  0  0  0
   -0.4514   -5.2100    7.3554 C   0  0  0  0  0  0  0  0  0  0  0  0
   -1.3484   -4.8072    8.3140 C   0  0  0  0  0  0  0  0  0  0  0  0
   -1.5602   -3.4702    8.6083 C   0  0  0  0  0  0  0  0  0  0  0  0
   -0.8840   -2.4539    7.9561 C   0  0  0  0  0  0  0  0  0  0  0  0
    0.0330   -2.8331    6.9777 C   0  0  0  0  0  0  0  0  0  0  0  0
    0.8520   -2.1090    6.1604 N   0  0  0  0  0  0  0  0  0  0  0  0
    0.9150   -1.1412    6.1483 H   0  0  0  0  0  0  0  0  0  0  0  0
    1.8426   -5.4572    4.9722 C   0  0  0  0  0  0  0  0  0  0  0  0
    2.4830   -5.0524    3.6392 C   0  0  1  0  0  0  0  0  0  0  0  0
    1.7377   -4.9533    2.8500 H   0  0  0  0  0  0  0  0  0  0  0  0
    3.2272   -3.7892    3.8528 N   0  0  0  0  0  0  0  0  0  0  0  0
    4.5090   -4.0275    3.5690 C   0  0  0  0  0  0  0  0  0  0  0  0
    5.3777   -3.1777    3.5898 O   0  0  0  0  0  0  0  0  0  0  0  0
    4.7275   -5.3134    3.2587 N   0  0  0  0  0  0  0  0  0  0  0  0
    3.5621   -6.0496    3.2691 C   0  0  0  0  0  0  0  0  0  0  0  0
    3.4178   -7.2314    3.0405 O   0  0  0  0  0  0  0  0  0  0  0  0
    6.0438   -5.8697    2.9360 C   0  0  0  0  0  0  0  0  0  0  0  0
    6.7169   -6.3638    4.2181 C   0  0  0  0  0  0  0  0  0  0  0  0
    8.0368   -6.9216    3.8945 N   0  3  0  0  0  0  0  0  0  0  0  0
    8.9574   -5.8399    3.4600 C   0  0  0  0  0  0  0  0  0  0  0  0
   10.3607   -6.4482    3.7071 C   0  0  0  0  0  0  0  0  0  0  0  0
   10.1655   -7.2474    5.0159 C   0  0  0  0  0  0  0  0  0  0  0  0
    8.6511   -7.5124    5.1033 C   0  0  0  0  0  0  0  0  0  0  0  0
    1.3752    1.4841   -0.4077 H   0  0  0  0  0  0  0  0  0  0  0  0
   -0.2557    1.7414   -1.0728 H   0  0  0  0  0  0  0  0  0  0  0  0
    0.0378    1.9504    0.6704 H   0  0  0  0  0  0  0  0  0  0  0  0
    1.7034    1.1354    1.6355 H   0  0  0  0  0  0  0  0  0  0  0  0
    2.8302    0.0195    3.5180 H   0  0  0  0  0  0  0  0  0  0  0  0
    0.8240   -3.6229    2.5693 H   0  0  0  0  0  0  0  0  0  0  0  0
   -0.3155   -2.5112    0.6918 H   0  0  0  0  0  0  0  0  0  0  0  0
   -0.2923   -6.2547    7.1329 H   0  0  0  0  0  0  0  0  0  0  0  0
   -1.9062   -5.5567    8.8558 H   0  0  0  0  0  0  0  0  0  0  0  0
   -2.2780   -3.2121    9.3729 H   0  0  0  0  0  0  0  0  0  0  0  0
   -1.0589   -1.4151    8.1943 H   0  0  0  0  0  0  0  0  0  0  0  0
    2.6015   -5.8913    5.6232 H   0  0  0  0  0  0  0  0  0  0  0  0
    1.0568   -6.1903    4.7903 H   0  0  0  0  0  0  0  0  0  0  0  0
    5.9263   -6.7028    2.2431 H   0  0  0  0  0  0  0  0  0  0  0  0
    6.6612   -5.0984    2.4756 H   0  0  0  0  0  0  0  0  0  0  0  0
    6.8344   -5.5307    4.9111 H   0  0  0  0  0  0  0  0  0  0  0  0
    6.0995   -7.1351    4.6786 H   0  0  0  0  0  0  0  0  0  0  0  0
    8.8159   -5.6160    2.4026 H   0  0  0  0  0  0  0  0  0  0  0  0
    8.8135   -4.9456    4.0663 H   0  0  0  0  0  0  0  0  0  0  0  0
   10.6434   -7.1108    2.8890 H   0  0  0  0  0  0  0  0  0  0  0  0
   11.1035   -5.6620    3.8423 H   0  0  0  0  0  0  0  0  0  0  0  0
   10.7123   -8.1892    4.9692 H   0  0  0  0  0  0  0  0  0  0  0  0
   10.4966   -6.6589    5.8715 H   0  0  0  0  0  0  0  0  0  0  0  0
    8.2423   -7.0397    5.9964 H   0  0  0  0  0  0  0  0  0  0  0  0
    8.4627   -8.5857    5.1288 H   0  0  0  0  0  0  0  0  0  0  0  0
    7.9522   -7.6194    3.1707 H   0  0  0  0  0  0  0  0  0  0  0  0
  1  2  1  0  0  0  0
  1 37  1  0  0  0  0
  1 38  1  0  0  0  0
  1 39  1  0  0  0  0
  2  3  1  0  0  0  0
  3  8  2  0  0  0  0
  3  4  1  0  0  0  0
  4  5  2  0  0  0  0
  4 40  1  0  0  0  0
  5  6  1  0  0  0  0
  5 41  1  0  0  0  0
  6  7  2  0  0  0  0
  6  9  1  0  0  0  0
  7  8  1  0  0  0  0
  7 42  1  0  0  0  0
  8 43  1  0  0  0  0
  9 10  1  0  0  0  0
  9 24  1  0  0  0  0
  9 11  1  0  0  0  0
 11 19  1  0  0  0  0
 11 12  2  0  0  0  0
 12 13  1  0  0  0  0
 12 21  1  0  0  0  0
 13 18  2  0  0  0  0
 13 14  1  0  0  0  0
 14 15  2  0  0  0  0
 14 44  1  0  0  0  0
 15 16  1  0  0  0  0
 15 45  1  0  0  0  0
 16 17  2  0  0  0  0
 16 46  1  0  0  0  0
 17 18  1  0  0  0  0
 17 47  1  0  0  0  0
 18 19  1  0  0  0  0
 19 20  1  0  0  0  0
 21 22  1  0  0  0  0
 21 48  1  0  0  0  0
 21 49  1  0  0  0  0
 22 23  1  0  0  0  0
 22 28  1  0  0  0  0
 22 24  1  0  0  0  0
 24 25  1  0  0  0  0
 25 26  2  0  0  0  0
 25 27  1  0  0  0  0
 27 28  1  0  0  0  0
 27 30  1  0  0  0  0
 28 29  2  0  0  0  0
 30 31  1  0  0  0  0
 30 50  1  0  0  0  0
 30 51  1  0  0  0  0
 31 32  1  0  0  0  0
 31 52  1  0  0  0  0
 31 53  1  0  0  0  0
 32 36  1  0  0  0  0
 32 33  1  0  0  0  0
 32 62  1  0  0  0  0
 33 34  1  0  0  0  0
 33 54  1  0  0  0  0
 33 55  1  0  0  0  0
 34 35  1  0  0  0  0
 34 56  1  0  0  0  0
 34 57  1  0  0  0  0
 35 36  1  0  0  0  0
 35 58  1  0  0  0  0
 35 59  1  0  0  0  0
 36 60  1  0  0  0  0
 36 61  1  0  0  0  0
M  CHG  1  32   1
M  END
$$$$
CHEMBL423180
  -OEChem-07121202283D

 57 63  0     1  0  0  0  0  0999 V2000
   -0.0165    1.3628    0.0095 C   0  0  0  0  0  0  0  0  0  0  0  0
    1.1698    2.0838    0.0021 C   0  0  0  0  0  0  0  0  0  0  0  0
    2.3862    1.4376   -0.0135 C   0  0  0  0  0  0  0  0  0  0  0  0
    2.4284    0.0458   -0.0214 C   0  0  0  0  0  0  0  0  0  0  0  0
    1.2231   -0.6777   -0.0133 C   0  0  0  0  0  0  0  0  0  0  0  0
    0.0021   -0.0041    0.0020 C   0  0  0  0  0  0  0  0  0  0  0  0
    1.2934   -2.1480   -0.0219 C   0  0  0  0  0  0  0  0  0  0  0  0
    2.5744   -2.7535   -0.0380 C   0  0  0  0  0  0  0  0  0  0  0  0
    3.6874   -1.9921   -0.0449 C   0  0  0  0  0  0  0  0  0  0  0  0
    3.6240   -0.6315   -0.0374 N   0  0  0  0  0  0  0  0  0  0  0  0
    4.9010   -2.8944   -0.0614 C   0  0  2  0  0  0  0  0  0  0  0  0
    4.4244   -4.2808   -0.0638 N   0  0  0  0  0  0  0  0  0  0  0  0
    2.9595   -4.2121   -0.0492 C   0  0  0  0  0  0  0  0  0  0  0  0
    5.1813   -5.3958   -0.0778 C   0  0  0  0  0  0  0  0  0  0  0  0
    6.3952   -5.3073   -0.0901 O   0  0  0  0  0  0  0  0  0  0  0  0
    4.5430   -6.7147   -0.0782 C   0  0  0  0  0  0  0  0  0  0  0  0
    5.1943   -7.9286   -0.0860 C   0  0  0  0  0  0  0  0  0  0  0  0
    4.2050   -8.9174   -0.0824 C   0  0  0  0  0  0  0  0  0  0  0  0
    2.9987   -8.2781   -0.0726 C   0  0  0  0  0  0  0  0  0  0  0  0
    3.2143   -6.9521   -0.0651 O   0  0  0  0  0  0  0  0  0  0  0  0
    1.6760   -8.9354   -0.0658 C   0  0  0  0  0  0  0  0  0  0  0  0
    0.5014   -8.1723   -0.0617 C   0  0  0  0  0  0  0  0  0  0  0  0
   -0.7120   -8.8367   -0.0558 C   0  0  0  0  0  0  0  0  0  0  0  0
   -0.7267  -10.2203   -0.0542 C   0  0  0  0  0  0  0  0  0  0  0  0
    0.3956  -10.9135   -0.0581 N   0  0  0  0  0  0  0  0  0  0  0  0
    1.5751  -10.3278   -0.0691 C   0  0  0  0  0  0  0  0  0  0  0  0
    5.7400   -2.6447    1.1653 C   0  0  0  0  0  0  0  0  0  0  0  0
    5.3882   -3.2158    2.3746 C   0  0  0  0  0  0  0  0  0  0  0  0
    6.1550   -2.9939    3.4994 C   0  0  0  0  0  0  0  0  0  0  0  0
    7.2913   -2.1917    3.4267 C   0  0  0  0  0  0  0  0  0  0  0  0
    7.6303   -1.6177    2.2084 C   0  0  0  0  0  0  0  0  0  0  0  0
    6.8682   -1.8480    1.0843 C   0  0  0  0  0  0  0  0  0  0  0  0
    8.8804   -0.7910    2.4391 C   0  0  0  0  0  0  0  0  0  0  0  0
    8.9149   -0.6868    3.9822 C   0  0  0  0  0  0  0  0  0  0  0  0
    8.1857   -1.8547    4.3962 O   0  0  0  0  0  0  0  0  0  0  0  0
    0.2786   -2.8253   -0.0151 O   0  0  0  0  0  0  0  0  0  0  0  0
   -0.9613    1.8858    0.0259 H   0  0  0  0  0  0  0  0  0  0  0  0
    1.1386    3.1633    0.0082 H   0  0  0  0  0  0  0  0  0  0  0  0
    3.3032    2.0080   -0.0199 H   0  0  0  0  0  0  0  0  0  0  0  0
   -0.9242   -0.5595    0.0083 H   0  0  0  0  0  0  0  0  0  0  0  0
    5.4905   -2.7047   -0.9584 H   0  0  0  0  0  0  0  0  0  0  0  0
    2.5749   -4.7034    0.8446 H   0  0  0  0  0  0  0  0  0  0  0  0
    2.5575   -4.6942   -0.9403 H   0  0  0  0  0  0  0  0  0  0  0  0
    6.2627   -8.0864   -0.0935 H   0  0  0  0  0  0  0  0  0  0  0  0
    4.3653   -9.9854   -0.0869 H   0  0  0  0  0  0  0  0  0  0  0  0
    0.5420   -7.0931   -0.0627 H   0  0  0  0  0  0  0  0  0  0  0  0
   -1.6381   -8.2812   -0.0522 H   0  0  0  0  0  0  0  0  0  0  0  0
   -1.6727  -10.7413   -0.0492 H   0  0  0  0  0  0  0  0  0  0  0  0
    2.4718  -10.9296   -0.0768 H   0  0  0  0  0  0  0  0  0  0  0  0
    4.5081   -3.8385    2.4387 H   0  0  0  0  0  0  0  0  0  0  0  0
    5.8735   -3.4442    4.4399 H   0  0  0  0  0  0  0  0  0  0  0  0
    7.1492   -1.4038    0.1408 H   0  0  0  0  0  0  0  0  0  0  0  0
    9.7638   -1.3076    2.0638 H   0  0  0  0  0  0  0  0  0  0  0  0
    8.7849    0.1949    1.9842 H   0  0  0  0  0  0  0  0  0  0  0  0
    9.9407   -0.7219    4.3489 H   0  0  0  0  0  0  0  0  0  0  0  0
    8.4140    0.2207    4.3193 H   0  0  0  0  0  0  0  0  0  0  0  0
    4.4504   -0.1236   -0.0431 H   0  0  0  0  0  0  0  0  0  0  0  0
  1  6  2  0  0  0  0
  1  2  1  0  0  0  0
  1 37  1  0  0  0  0
  2  3  2  0  0  0  0
  2 38  1  0  0  0  0
  3  4  1  0  0  0  0
  3 39  1  0  0  0  0
  4 10  1  0  0  0  0
  4  5  2  0  0  0  0
  5  6  1  0  0  0  0
  5  7  1  0  0  0  0
  6 40  1  0  0  0  0
  7  8  1  0  0  0  0
  7 36  2  0  0  0  0
  8 13  1  0  0  0  0
  8  9  2  0  0  0  0
  9 10  1  0  0  0  0
  9 11  1  0  0  0  0
 10 57  1  0  0  0  0
 11 12  1  0  0  0  0
 11 27  1  0  0  0  0
 11 41  1  0  0  0  0
 12 13  1  0  0  0  0
 12 14  1  0  0  0  0
 13 42  1  0  0  0  0
 13 43  1  0  0  0  0
 14 15  2  0  0  0  0
 14 16  1  0  0  0  0
 16 20  1  0  0  0  0
 16 17  2  0  0  0  0
 17 18  1  0  0  0  0
 17 44  1  0  0  0  0
 18 19  2  0  0  0  0
 18 45  1  0  0  0  0
 19 20  1  0  0  0  0
 19 21  1  0  0  0  0
 21 26  2  0  0  0  0
 21 22  1  0  0  0  0
 22 23  2  0  0  0  0
 22 46  1  0  0  0  0
 23 24  1  0  0  0  0
 23 47  1  0  0  0  0
 24 25  2  0  0  0  0
 24 48  1  0  0  0  0
 25 26  1  0  0  0  0
 26 49  1  0  0  0  0
 27 32  2  0  0  0  0
 27 28  1  0  0  0  0
 28 29  2  0  0  0  0
 28 50  1  0  0  0  0
 29 30  1  0  0  0  0
 29 51  1  0  0  0  0
 30 35  1  0  0  0  0
 30 31  2  0  0  0  0
 31 32  1  0  0  0  0
 31 33  1  0  0  0  0
 32 52  1  0  0  0  0
 33 34  1  0  0  0  0
 33 53  1  0  0  0  0
 33 54  1  0  0  0  0
 34 35  1  0  0  0  0
 34 55  1  0  0  0  0
 34 56  1  0  0  0  0
M  END
$$$$
CHEMBL423180
  -OEChem-07121202283D

 57 63  0     1  0  0  0  0  0999 V2000
   -0.0165    1.3628    0.0095 C   0  0  0  0  0  0  0  0  0  0  0  0
    1.1698    2.0838    0.0021 C   0  0  0  0  0  0  0  0  0  0  0  0
    2.3862    1.4376   -0.0135 C   0  0  0  0  0  0  0  0  0  0  0  0
    2.4284    0.0458   -0.0214 C   0  0  0  0  0  0  0  0  0  0  0  0
    1.2231   -0.6777   -0.0133 C   0  0  0  0  0  0  0  0  0  0  0  0
    0.0021   -0.0041    0.0020 C   0  0  0  0  0  0  0  0  0  0  0  0
    1.2934   -2.1480   -0.0219 C   0  0  0  0  0  0  0  0  0  0  0  0
    2.5744   -2.7535   -0.0380 C   0  0  0  0  0  0  0  0  0  0  0  0
    3.6874   -1.9921   -0.0449 C   0  0  0  0  0  0  0  0  0  0  0  0
    3.6240   -0.6315   -0.0374 N   0  0  0  0  0  0  0  0  0  0  0  0
    4.9010   -2.8944   -0.0614 C   0  0  1  0  0  0  0  0  0  0  0  0
    4.4244   -4.2808   -0.0638 N   0  0  0  0  0  0  0  0  0  0  0  0
    2.9595   -4.2121   -0.0492 C   0  0  0  0  0  0  0  0  0  0  0  0
    5.1813   -5.3958   -0.0778 C   0  0  0  0  0  0  0  0  0  0  0  0
    6.3952   -5.3073   -0.0901 O   0  0  0  0  0  0  0  0  0  0  0  0
    4.5430   -6.7147   -0.0782 C   0  0  0  0  0  0  0  0  0  0  0  0
    5.1943   -7.9286   -0.0860 C   0  0  0  0  0  0  0  0  0  0  0  0
    4.2050   -8.9174   -0.0824 C   0  0  0  0  0  0  0  0  0  0  0  0
    2.9987   -8.2781   -0.0726 C   0  0  0  0  0  0  0  0  0  0  0  0
    3.2143   -6.9521   -0.0651 O   0  0  0  0  0  0  0  0  0  0  0  0
    1.6760   -8.9354   -0.0658 C   0  0  0  0  0  0  0  0  0  0  0  0
    0.5014   -8.1723   -0.0617 C   0  0  0  0  0  0  0  0  0  0  0  0
   -0.7120   -8.8367   -0.0558 C   0  0  0  0  0  0  0  0  0  0  0  0
   -0.7267  -10.2203   -0.0542 C   0  0  0  0  0  0  0  0  0  0  0  0
    0.3956  -10.9135   -0.0581 N   0  0  0  0  0  0  0  0  0  0  0  0
    1.5751  -10.3278   -0.0691 C   0  0  0  0  0  0  0  0  0  0  0  0
    5.7160   -2.6321   -1.3016 C   0  0  0  0  0  0  0  0  0  0  0  0
    5.3341   -3.1814   -2.5118 C   0  0  0  0  0  0  0  0  0  0  0  0
    6.0741   -2.9410   -3.6508 C   0  0  0  0  0  0  0  0  0  0  0  0
    7.2135   -2.1422   -3.5914 C   0  0  0  0  0  0  0  0  0  0  0  0
    7.5911   -1.6022   -2.3688 C   0  0  0  0  0  0  0  0  0  0  0  0
    6.8456   -1.8361   -1.2344 C   0  0  0  0  0  0  0  0  0  0  0  0
    8.8629   -0.8111   -2.6062 C   0  0  0  0  0  0  0  0  0  0  0  0
    9.3082   -1.3300   -3.9939 C   0  0  0  0  0  0  0  0  0  0  0  0
    8.0716   -1.7702   -4.5806 O   0  0  0  0  0  0  0  0  0  0  0  0
    0.2786   -2.8253   -0.0151 O   0  0  0  0  0  0  0  0  0  0  0  0
   -0.9613    1.8858    0.0259 H   0  0  0  0  0  0  0  0  0  0  0  0
    1.1386    3.1633    0.0082 H   0  0  0  0  0  0  0  0  0  0  0  0
    3.3032    2.0080   -0.0199 H   0  0  0  0  0  0  0  0  0  0  0  0
   -0.9242   -0.5595    0.0083 H   0  0  0  0  0  0  0  0  0  0  0  0
    5.5079   -2.7138    0.8259 H   0  0  0  0  0  0  0  0  0  0  0  0
    2.5749   -4.7034    0.8446 H   0  0  0  0  0  0  0  0  0  0  0  0
    2.5575   -4.6942   -0.9403 H   0  0  0  0  0  0  0  0  0  0  0  0
    6.2627   -8.0864   -0.0935 H   0  0  0  0  0  0  0  0  0  0  0  0
    4.3653   -9.9854   -0.0869 H   0  0  0  0  0  0  0  0  0  0  0  0
    0.5420   -7.0931   -0.0627 H   0  0  0  0  0  0  0  0  0  0  0  0
   -1.6381   -8.2812   -0.0522 H   0  0  0  0  0  0  0  0  0  0  0  0
   -1.6727  -10.7413   -0.0492 H   0  0  0  0  0  0  0  0  0  0  0  0
    2.4718  -10.9296   -0.0768 H   0  0  0  0  0  0  0  0  0  0  0  0
    4.4520   -3.8022   -2.5654 H   0  0  0  0  0  0  0  0  0  0  0  0
    5.7686   -3.3734   -4.5921 H   0  0  0  0  0  0  0  0  0  0  0  0
    7.1449   -1.4014   -0.2922 H   0  0  0  0  0  0  0  0  0  0  0  0
    8.6559    0.2586   -2.6383 H   0  0  0  0  0  0  0  0  0  0  0  0
    9.6108   -1.0390   -1.8468 H   0  0  0  0  0  0  0  0  0  0  0  0
    9.7505   -0.5265   -4.5829 H   0  0  0  0  0  0  0  0  0  0  0  0
   10.0042   -2.1623   -3.8899 H   0  0  0  0  0  0  0  0  0  0  0  0
    4.4504   -0.1236   -0.0431 H   0  0  0  0  0  0  0  0  0  0  0  0
  1  6  2  0  0  0  0
  1  2  1  0  0  0  0
  1 37  1  0  0  0  0
  2  3  2  0  0  0  0
  2 38  1  0  0  0  0
  3  4  1  0  0  0  0
  3 39  1  0  0  0  0
  4 10  1  0  0  0  0
  4  5  2  0  0  0  0
  5  6  1  0  0  0  0
  5  7  1  0  0  0  0
  6 40  1  0  0  0  0
  7  8  1  0  0  0  0
  7 36  2  0  0  0  0
  8 13  1  0  0  0  0
  8  9  2  0  0  0  0
  9 10  1  0  0  0  0
  9 11  1  0  0  0  0
 10 57  1  0  0  0  0
 11 12  1  0  0  0  0
 11 27  1  0  0  0  0
 11 41  1  0  0  0  0
 12 13  1  0  0  0  0
 12 14  1  0  0  0  0
 13 42  1  0  0  0  0
 13 43  1  0  0  0  0
 14 15  2  0  0  0  0
 14 16  1  0  0  0  0
 16 20  1  0  0  0  0
 16 17  2  0  0  0  0
 17 18  1  0  0  0  0
 17 44  1  0  0  0  0
 18 19  2  0  0  0  0
 18 45  1  0  0  0  0
 19 20  1  0  0  0  0
 19 21  1  0  0  0  0
 21 26  2  0  0  0  0
 21 22  1  0  0  0  0
 22 23  2  0  0  0  0
 22 46  1  0  0  0  0
 23 24  1  0  0  0  0
 23 47  1  0  0  0  0
 24 25  2  0  0  0  0
 24 48  1  0  0  0  0
 25 26  1  0  0  0  0
 26 49  1  0  0  0  0
 27 32  2  0  0  0  0
 27 28  1  0  0  0  0
 28 29  2  0  0  0  0
 28 50  1  0  0  0  0
 29 30  1  0  0  0  0
 29 51  1  0  0  0  0
 30 35  1  0  0  0  0
 30 31  2  0  0  0  0
 31 32  1  0  0  0  0
 31 33  1  0  0  0  0
 32 52  1  0  0  0  0
 33 34  1  0  0  0  0
 33 53  1  0  0  0  0
 33 54  1  0  0  0  0
 34 35  1  0  0  0  0
 34 55  1  0  0  0  0
 34 56  1  0  0  0  0
M  END
$$$$
CHEMBL378130
  -OEChem-07121202283D

 65 68  0     0  0  0  0  0  0999 V2000
   -0.0187    1.5258    0.0104 C   0  0  0  0  0  0  0  0  0  0  0  0
    0.0021   -0.0041    0.0020 C   0  0  0  0  0  0  0  0  0  0  0  0
    0.7182   -0.4975   -1.2568 C   0  0  0  0  0  0  0  0  0  0  0  0
    0.7390   -2.0273   -1.2652 C   0  0  0  0  0  0  0  0  0  0  0  0
    1.4078   -2.4882   -2.4409 O   0  0  0  0  0  0  0  0  0  0  0  0
    1.5132   -3.8277   -2.6027 C   0  0  0  0  0  0  0  0  0  0  0  0
    2.1650   -4.3399   -3.7355 C   0  0  0  0  0  0  0  0  0  0  0  0
    2.2667   -5.7190   -3.8902 C   0  0  0  0  0  0  0  0  0  0  0  0
    1.7088   -6.5407   -2.8991 C   0  0  0  0  0  0  0  0  0  0  0  0
    1.0760   -5.9476   -1.8009 C   0  0  0  0  0  0  0  0  0  0  0  0
    1.0051   -4.6384   -1.6881 N   0  0  0  0  0  0  0  0  0  0  0  0
    1.7875   -8.0033   -3.0130 C   0  0  0  0  0  0  0  0  0  0  0  0
    2.3376   -8.5084   -3.9686 O   0  0  0  0  0  0  0  0  0  0  0  0
    1.1847   -8.8759   -1.9424 C   0  0  0  0  0  0  0  0  0  0  0  0
    2.7359   -3.4254   -4.7518 C   0  0  0  0  0  0  0  0  0  0  0  0
    3.3315   -3.9594   -5.7966 N   0  0  0  0  0  0  0  0  0  0  0  0
    3.8672   -3.1835   -6.7504 C   0  0  0  0  0  0  0  0  0  0  0  0
    4.5421   -3.3559   -7.9392 C   0  0  0  0  0  0  0  0  0  0  0  0
    4.8073   -2.1278   -8.4208 N   0  0  0  0  0  0  0  0  0  0  0  0
    4.3628   -1.2017   -7.6468 N   0  0  0  0  0  0  0  0  0  0  0  0
    3.7701   -1.7187   -6.5954 C   0  0  0  0  0  0  0  0  0  0  0  0
    3.0903   -1.2211   -5.4016 C   0  0  0  0  0  0  0  0  0  0  0  0
    2.6091   -2.1127   -4.5529 N   0  0  0  0  0  0  0  0  0  0  0  0
    2.9541    0.1056   -5.1753 O   0  5  0  0  0  0  0  0  0  0  0  0
    5.5181   -1.8756   -9.6767 C   0  0  0  0  0  0  0  0  0  0  0  0
    4.5109   -1.7960  -10.8256 C   0  0  0  0  0  0  0  0  0  0  0  0
    5.2237   -1.5431  -12.0850 N   0  0  0  0  0  0  0  0  0  0  0  0
    5.8450   -0.2107  -12.0804 C   0  0  0  0  0  0  0  0  0  0  0  0
    6.6249   -0.0127  -13.3828 C   0  0  0  0  0  0  0  0  0  0  0  0
    5.7424   -0.1947  -14.4934 O   0  0  0  0  0  0  0  0  0  0  0  0
    5.1202   -1.4819  -14.5295 C   0  0  0  0  0  0  0  0  0  0  0  0
    4.3251   -1.6948  -13.2386 C   0  0  0  0  0  0  0  0  0  0  0  0
    4.9133   -4.6694   -8.5779 C   0  0  0  0  0  0  0  0  0  0  0  0
    6.2936   -5.1054   -8.0823 C   0  0  0  0  0  0  0  0  0  0  0  0
    1.0039    1.9031    0.0027 H   0  0  0  0  0  0  0  0  0  0  0  0
   -0.5459    1.8868   -0.8726 H   0  0  0  0  0  0  0  0  0  0  0  0
   -0.5289    1.8773    0.9072 H   0  0  0  0  0  0  0  0  0  0  0  0
    0.5293   -0.3651    0.8851 H   0  0  0  0  0  0  0  0  0  0  0  0
   -1.0205   -0.3814    0.0098 H   0  0  0  0  0  0  0  0  0  0  0  0
    0.1910   -0.1364   -2.1398 H   0  0  0  0  0  0  0  0  0  0  0  0
    1.7408   -0.1202   -1.2645 H   0  0  0  0  0  0  0  0  0  0  0  0
    1.2661   -2.3884   -0.3821 H   0  0  0  0  0  0  0  0  0  0  0  0
   -0.2836   -2.4046   -1.2575 H   0  0  0  0  0  0  0  0  0  0  0  0
    2.7616   -6.1455   -4.7503 H   0  0  0  0  0  0  0  0  0  0  0  0
    0.6435   -6.5726   -1.0336 H   0  0  0  0  0  0  0  0  0  0  0  0
    0.1468   -9.0947   -2.1937 H   0  0  0  0  0  0  0  0  0  0  0  0
    1.7461   -9.8077   -1.8743 H   0  0  0  0  0  0  0  0  0  0  0  0
    1.2250   -8.3566   -0.9849 H   0  0  0  0  0  0  0  0  0  0  0  0
    6.0614   -0.9335   -9.6038 H   0  0  0  0  0  0  0  0  0  0  0  0
    6.2213   -2.6869   -9.8655 H   0  0  0  0  0  0  0  0  0  0  0  0
    3.9676   -2.7381  -10.8985 H   0  0  0  0  0  0  0  0  0  0  0  0
    3.8078   -0.9848  -10.6369 H   0  0  0  0  0  0  0  0  0  0  0  0
    5.0703    0.5519  -12.0005 H   0  0  0  0  0  0  0  0  0  0  0  0
    6.5255   -0.1294  -11.2327 H   0  0  0  0  0  0  0  0  0  0  0  0
    7.0399    0.9949  -13.4090 H   0  0  0  0  0  0  0  0  0  0  0  0
    7.4335   -0.7416  -13.4373 H   0  0  0  0  0  0  0  0  0  0  0  0
    4.4470   -1.5369  -15.3849 H   0  0  0  0  0  0  0  0  0  0  0  0
    5.8851   -2.2535  -14.6173 H   0  0  0  0  0  0  0  0  0  0  0  0
    3.8961   -2.6968  -13.2365 H   0  0  0  0  0  0  0  0  0  0  0  0
    3.5261   -0.9560  -13.1772 H   0  0  0  0  0  0  0  0  0  0  0  0
    4.1754   -5.4253   -8.3093 H   0  0  0  0  0  0  0  0  0  0  0  0
    4.9364   -4.5529   -9.6614 H   0  0  0  0  0  0  0  0  0  0  0  0
    7.0316   -4.3495   -8.3509 H   0  0  0  0  0  0  0  0  0  0  0  0
    6.2706   -5.2219   -6.9988 H   0  0  0  0  0  0  0  0  0  0  0  0
    6.5621   -6.0555   -8.5442 H   0  0  0  0  0  0  0  0  0  0  0  0
  1  2  1  0  0  0  0
  1 35  1  0  0  0  0
  1 36  1  0  0  0  0
  1 37  1  0  0  0  0
  2  3  1  0  0  0  0
  2 38  1  0  0  0  0
  2 39  1  0  0  0  0
  3  4  1  0  0  0  0
  3 40  1  0  0  0  0
  3 41  1  0  0  0  0
  4  5  1  0  0  0  0
  4 42  1  0  0  0  0
  4 43  1  0  0  0  0
  5  6  1  0  0  0  0
  6 11  2  0  0  0  0
  6  7  1  0  0  0  0
  7  8  2  0  0  0  0
  7 15  1  0  0  0  0
  8  9  1  0  0  0  0
  8 44  1  0  0  0  0
  9 10  2  0  0  0  0
  9 12  1  0  0  0  0
 10 11  1  0  0  0  0
 10 45  1  0  0  0  0
 12 13  2  0  0  0  0
 12 14  1  0  0  0  0
 14 46  1  0  0  0  0
 14 47  1  0  0  0  0
 14 48  1  0  0  0  0
 15 23  1  0  0  0  0
 15 16  2  0  0  0  0
 16 17  1  0  0  0  0
 17 21  1  0  0  0  0
 17 18  2  0  0  0  0
 18 19  1  0  0  0  0
 18 33  1  0  0  0  0
 19 20  1  0  0  0  0
 19 25  1  0  0  0  0
 20 21  2  0  0  0  0
 21 22  1  0  0  0  0
 22 23  2  0  0  0  0
 22 24  1  0  0  0  0
 25 26  1  0  0  0  0
 25 49  1  0  0  0  0
 25 50  1  0  0  0  0
 26 27  1  0  0  0  0
 26 51  1  0  0  0  0
 26 52  1  0  0  0  0
 27 32  1  0  0  0  0
 27 28  1  0  0  0  0
 28 29  1  0  0  0  0
 28 53  1  0  0  0  0
 28 54  1  0  0  0  0
 29 30  1  0  0  0  0
 29 55  1  0  0  0  0
 29 56  1  0  0  0  0
 30 31  1  0  0  0  0
 31 32  1  0  0  0  0
 31 57  1  0  0  0  0
 31 58  1  0  0  0  0
 32 59  1  0  0  0  0
 32 60  1  0  0  0  0
 33 34  1  0  0  0  0
 33 61  1  0  0  0  0
 33 62  1  0  0  0  0
 34 63  1  0  0  0  0
 34 64  1  0  0  0  0
 34 65  1  0  0  0  0
M  CHG  1  24  -1
M  END
$$$$
CHEMBL378130
  -OEChem-07121202283D

 66 69  0     0  0  0  0  0  0999 V2000
   -0.0187    1.5258    0.0104 C   0  0  0  0  0  0  0  0  0  0  0  0
    0.0021   -0.0041    0.0020 C   0  0  0  0  0  0  0  0  0  0  0  0
   -1.4333   -0.5336    0.0129 C   0  0  0  0  0  0  0  0  0  0  0  0
   -1.4126   -2.0635    0.0045 C   0  0  0  0  0  0  0  0  0  0  0  0
   -2.7532   -2.5581    0.0146 O   0  0  0  0  0  0  0  0  0  0  0  0
   -2.9123   -3.9018    0.0089 C   0  0  0  0  0  0  0  0  0  0  0  0
   -4.2074   -4.4475    0.0126 C   0  0  0  0  0  0  0  0  0  0  0  0
   -4.3565   -5.8331    0.0066 C   0  0  0  0  0  0  0  0  0  0  0  0
   -3.1985   -6.6243   -0.0028 C   0  0  0  0  0  0  0  0  0  0  0  0
   -1.9464   -5.9983   -0.0059 C   0  0  0  0  0  0  0  0  0  0  0  0
   -1.8465   -4.6862   -0.0055 N   0  0  0  0  0  0  0  0  0  0  0  0
   -3.2981   -8.0901   -0.0089 C   0  0  0  0  0  0  0  0  0  0  0  0
   -4.3872   -8.6239   -0.0058 O   0  0  0  0  0  0  0  0  0  0  0  0
   -2.0471   -8.9303   -0.0190 C   0  0  0  0  0  0  0  0  0  0  0  0
   -5.3923   -3.5661    0.0230 C   0  0  0  0  0  0  0  0  0  0  0  0
   -5.1987   -2.2737    0.0235 N   0  0  0  0  0  0  0  0  0  0  0  0
   -6.2398   -1.4061    0.0328 C   0  0  0  0  0  0  0  0  0  0  0  0
   -6.4075   -0.0435    0.0361 C   0  0  0  0  0  0  0  0  0  0  0  0
   -7.7373    0.1884    0.0468 N   0  0  0  0  0  0  0  0  0  0  0  0
   -8.4120   -0.9066    0.0504 N   0  0  0  0  0  0  0  0  0  0  0  0
   -7.6115   -1.9439    0.0426 C   0  0  0  0  0  0  0  0  0  0  0  0
   -7.7622   -3.4057    0.0423 C   0  0  0  0  0  0  0  0  0  0  0  0
   -6.6325   -4.1504    0.0262 N   0  0  0  0  0  0  0  0  0  0  0  0
   -8.8618   -3.9270    0.0501 O   0  0  0  0  0  0  0  0  0  0  0  0
   -8.3387    1.5243    0.0542 C   0  0  0  0  0  0  0  0  0  0  0  0
   -8.5590    1.9923   -1.3857 C   0  0  0  0  0  0  0  0  0  0  0  0
   -9.1620    3.3319   -1.3783 N   0  0  0  0  0  0  0  0  0  0  0  0
  -10.5206    3.2950   -0.8177 C   0  0  0  0  0  0  0  0  0  0  0  0
  -11.0874    4.7165   -0.7736 C   0  0  0  0  0  0  0  0  0  0  0  0
  -11.0595    5.2764   -2.0893 O   0  0  0  0  0  0  0  0  0  0  0  0
   -9.7516    5.3283   -2.6654 C   0  0  0  0  0  0  0  0  0  0  0  0
   -9.1712    3.9129   -2.7287 C   0  0  0  0  0  0  0  0  0  0  0  0
   -5.3156    0.9951    0.0300 C   0  0  0  0  0  0  0  0  0  0  0  0
   -4.9354    1.3439    1.4703 C   0  0  0  0  0  0  0  0  0  0  0  0
    1.0039    1.9031    0.0027 H   0  0  0  0  0  0  0  0  0  0  0  0
   -0.5459    1.8868   -0.8726 H   0  0  0  0  0  0  0  0  0  0  0  0
   -0.5289    1.8773    0.9072 H   0  0  0  0  0  0  0  0  0  0  0  0
    0.5123   -0.3556   -0.8948 H   0  0  0  0  0  0  0  0  0  0  0  0
    0.5293   -0.3651    0.8851 H   0  0  0  0  0  0  0  0  0  0  0  0
   -1.9435   -0.1821    0.9097 H   0  0  0  0  0  0  0  0  0  0  0  0
   -1.9605   -0.1726   -0.8702 H   0  0  0  0  0  0  0  0  0  0  0  0
   -0.9024   -2.4150   -0.8923 H   0  0  0  0  0  0  0  0  0  0  0  0
   -0.8854   -2.4246    0.8875 H   0  0  0  0  0  0  0  0  0  0  0  0
   -5.3372   -6.2855    0.0096 H   0  0  0  0  0  0  0  0  0  0  0  0
   -1.0500   -6.6006   -0.0131 H   0  0  0  0  0  0  0  0  0  0  0  0
   -1.7403   -9.1375    1.0062 H   0  0  0  0  0  0  0  0  0  0  0  0
   -2.2444   -9.8694   -0.5361 H   0  0  0  0  0  0  0  0  0  0  0  0
   -1.2519   -8.3918   -0.5345 H   0  0  0  0  0  0  0  0  0  0  0  0
   -9.2954    1.4891    0.5752 H   0  0  0  0  0  0  0  0  0  0  0  0
   -7.6724    2.2198    0.5644 H   0  0  0  0  0  0  0  0  0  0  0  0
   -7.6023    2.0274   -1.9068 H   0  0  0  0  0  0  0  0  0  0  0  0
   -9.2253    1.2968   -1.8959 H   0  0  0  0  0  0  0  0  0  0  0  0
  -11.1560    2.6691   -1.4443 H   0  0  0  0  0  0  0  0  0  0  0  0
  -10.4868    2.8851    0.1917 H   0  0  0  0  0  0  0  0  0  0  0  0
  -12.1153    4.6874   -0.4121 H   0  0  0  0  0  0  0  0  0  0  0  0
  -10.4828    5.3288   -0.1046 H   0  0  0  0  0  0  0  0  0  0  0  0
   -9.8134    5.7416   -3.6721 H   0  0  0  0  0  0  0  0  0  0  0  0
   -9.1081    5.9584   -2.0514 H   0  0  0  0  0  0  0  0  0  0  0  0
   -8.1525    3.9542   -3.1142 H   0  0  0  0  0  0  0  0  0  0  0  0
   -9.7851    3.2969   -3.3858 H   0  0  0  0  0  0  0  0  0  0  0  0
   -4.4428    0.6017   -0.4911 H   0  0  0  0  0  0  0  0  0  0  0  0
   -5.6695    1.8914   -0.4796 H   0  0  0  0  0  0  0  0  0  0  0  0
   -4.1456    2.0951    1.4659 H   0  0  0  0  0  0  0  0  0  0  0  0
   -5.8082    1.7374    1.9914 H   0  0  0  0  0  0  0  0  0  0  0  0
   -4.5815    0.4477    1.9799 H   0  0  0  0  0  0  0  0  0  0  0  0
   -6.7016   -5.1179    0.0212 H   0  0  0  0  0  0  0  0  0  0  0  0
  1  2  1  0  0  0  0
  1 35  1  0  0  0  0
  1 36  1  0  0  0  0
  1 37  1  0  0  0  0
  2  3  1  0  0  0  0
  2 38  1  0  0  0  0
  2 39  1  0  0  0  0
  3  4  1  0  0  0  0
  3 40  1  0  0  0  0
  3 41  1  0  0  0  0
  4  5  1  0  0  0  0
  4 42  1  0  0  0  0
  4 43  1  0  0  0  0
  5  6  1  0  0  0  0
  6 11  2  0  0  0  0
  6  7  1  0  0  0  0
  7  8  2  0  0  0  0
  7 15  1  0  0  0  0
  8  9  1  0  0  0  0
  8 44  1  0  0  0  0
  9 10  2  0  0  0  0
  9 12  1  0  0  0  0
 10 11  1  0  0  0  0
 10 45  1  0  0  0  0
 12 13  2  0  0  0  0
 12 14  1  0  0  0  0
 14 46  1  0  0  0  0
 14 47  1  0  0  0  0
 14 48  1  0  0  0  0
 15 23  1  0  0  0  0
 15 16  2  0  0  0  0
 16 17  1  0  0  0  0
 17 21  1  0  0  0  0
 17 18  2  0  0  0  0
 18 19  1  0  0  0  0
 18 33  1  0  0  0  0
 19 20  1  0  0  0  0
 19 25  1  0  0  0  0
 20 21  2  0  0  0  0
 21 22  1  0  0  0  0
 22 23  1  0  0  0  0
 22 24  2  0  0  0  0
 23 66  1  0  0  0  0
 25 26  1  0  0  0  0
 25 49  1  0  0  0  0
 25 50  1  0  0  0  0
 26 27  1  0  0  0  0
 26 51  1  0  0  0  0
 26 52  1  0  0  0  0
 27 32  1  0  0  0  0
 27 28  1  0  0  0  0
 28 29  1  0  0  0  0
 28 53  1  0  0  0  0
 28 54  1  0  0  0  0
 29 30  1  0  0  0  0
 29 55  1  0  0  0  0
 29 56  1  0  0  0  0
 30 31  1  0  0  0  0
 31 32  1  0  0  0  0
 31 57  1  0  0  0  0
 31 58  1  0  0  0  0
 32 59  1  0  0  0  0
 32 60  1  0  0  0  0
 33 34  1  0  0  0  0
 33 61  1  0  0  0  0
 33 62  1  0  0  0  0
 34 63  1  0  0  0  0
 34 64  1  0  0  0  0
 34 65  1  0  0  0  0
M  END
$$$$
CHEMBL378130
  -OEChem-07121202283D

 66 69  0     0  0  0  0  0  0999 V2000
   -0.0187    1.5258    0.0104 C   0  0  0  0  0  0  0  0  0  0  0  0
    0.0021   -0.0041    0.0020 C   0  0  0  0  0  0  0  0  0  0  0  0
    0.7182   -0.4975   -1.2568 C   0  0  0  0  0  0  0  0  0  0  0  0
    0.7390   -2.0273   -1.2652 C   0  0  0  0  0  0  0  0  0  0  0  0
    1.4078   -2.4882   -2.4409 O   0  0  0  0  0  0  0  0  0  0  0  0
    1.5131   -3.8267   -2.6026 C   0  0  0  0  0  0  0  0  0  0  0  0
    2.1662   -4.3405   -3.7373 C   0  0  0  0  0  0  0  0  0  0  0  0
    2.2675   -5.7234   -3.8904 C   0  0  0  0  0  0  0  0  0  0  0  0
    1.7097   -6.5420   -2.8987 C   0  0  0  0  0  0  0  0  0  0  0  0
    1.0767   -5.9469   -1.8005 C   0  0  0  0  0  0  0  0  0  0  0  0
    1.0052   -4.6380   -1.6882 N   0  0  0  0  0  0  0  0  0  0  0  0
    1.7876   -8.0050   -3.0103 C   0  0  0  0  0  0  0  0  0  0  0  0
    2.3374   -8.5119   -3.9652 O   0  0  0  0  0  0  0  0  0  0  0  0
    1.1844   -8.8756   -1.9383 C   0  0  0  0  0  0  0  0  0  0  0  0
    2.7345   -3.4314   -4.7500 C   0  0  0  0  0  0  0  0  0  0  0  0
    3.3528   -3.9727   -5.8345 N   0  0  0  0  0  0  0  0  0  0  0  0
    3.9007   -3.1490   -6.8092 C   0  0  0  0  0  0  0  0  0  0  0  0
    4.5642   -3.3285   -7.9758 C   0  0  0  0  0  0  0  0  0  0  0  0
    4.8364   -2.0990   -8.4685 N   0  0  0  0  0  0  0  0  0  0  0  0
    4.3828   -1.1882   -7.6796 N   0  0  0  0  0  0  0  0  0  0  0  0
    3.7976   -1.7396   -6.6431 C   0  0  0  0  0  0  0  0  0  0  0  0
    3.1103   -1.2418   -5.4373 C   0  0  0  0  0  0  0  0  0  0  0  0
    2.6159   -2.1337   -4.5660 N   0  0  0  0  0  0  0  0  0  0  0  0
    2.9901   -0.0449   -5.2387 O   0  0  0  0  0  0  0  0  0  0  0  0
    5.5478   -1.8398   -9.7226 C   0  0  0  0  0  0  0  0  0  0  0  0
    4.5416   -1.7578  -10.8722 C   0  0  0  0  0  0  0  0  0  0  0  0
    5.2550   -1.4979  -12.1298 N   0  0  0  0  0  0  0  0  0  0  0  0
    5.8731   -0.1641  -12.1190 C   0  0  0  0  0  0  0  0  0  0  0  0
    6.6538    0.0412  -13.4199 C   0  0  0  0  0  0  0  0  0  0  0  0
    5.7728   -0.1382  -14.5321 O   0  0  0  0  0  0  0  0  0  0  0  0
    5.1537   -1.4268  -14.5741 C   0  0  0  0  0  0  0  0  0  0  0  0
    4.3578   -1.6470  -13.2849 C   0  0  0  0  0  0  0  0  0  0  0  0
    4.9304   -4.6479   -8.6052 C   0  0  0  0  0  0  0  0  0  0  0  0
    6.3084   -5.0864   -8.1055 C   0  0  0  0  0  0  0  0  0  0  0  0
    1.0039    1.9031    0.0027 H   0  0  0  0  0  0  0  0  0  0  0  0
   -0.5459    1.8868   -0.8726 H   0  0  0  0  0  0  0  0  0  0  0  0
   -0.5289    1.8773    0.9072 H   0  0  0  0  0  0  0  0  0  0  0  0
    0.5293   -0.3651    0.8851 H   0  0  0  0  0  0  0  0  0  0  0  0
   -1.0205   -0.3814    0.0098 H   0  0  0  0  0  0  0  0  0  0  0  0
    0.1910   -0.1364   -2.1398 H   0  0  0  0  0  0  0  0  0  0  0  0
    1.7408   -0.1202   -1.2645 H   0  0  0  0  0  0  0  0  0  0  0  0
    1.2661   -2.3884   -0.3821 H   0  0  0  0  0  0  0  0  0  0  0  0
   -0.2836   -2.4046   -1.2575 H   0  0  0  0  0  0  0  0  0  0  0  0
    2.7620   -6.1516   -4.7497 H   0  0  0  0  0  0  0  0  0  0  0  0
    0.6442   -6.5713   -1.0327 H   0  0  0  0  0  0  0  0  0  0  0  0
    0.7386   -8.2468   -1.1677 H   0  0  0  0  0  0  0  0  0  0  0  0
    0.4162   -9.5125   -2.3770 H   0  0  0  0  0  0  0  0  0  0  0  0
    1.9622   -9.4974   -1.4949 H   0  0  0  0  0  0  0  0  0  0  0  0
    6.0888   -0.8967   -9.6453 H   0  0  0  0  0  0  0  0  0  0  0  0
    6.2531   -2.6486   -9.9141 H   0  0  0  0  0  0  0  0  0  0  0  0
    4.0006   -2.7009  -10.9496 H   0  0  0  0  0  0  0  0  0  0  0  0
    3.8363   -0.9490  -10.6808 H   0  0  0  0  0  0  0  0  0  0  0  0
    5.0965    0.5963  -12.0367 H   0  0  0  0  0  0  0  0  0  0  0  0
    6.5525   -0.0847  -11.2704 H   0  0  0  0  0  0  0  0  0  0  0  0
    7.0664    1.0499  -13.4414 H   0  0  0  0  0  0  0  0  0  0  0  0
    7.4642   -0.6855  -13.4766 H   0  0  0  0  0  0  0  0  0  0  0  0
    4.4814   -1.4798  -15.4305 H   0  0  0  0  0  0  0  0  0  0  0  0
    5.9205   -2.1962  -14.6644 H   0  0  0  0  0  0  0  0  0  0  0  0
    3.9312   -2.6500  -13.2874 H   0  0  0  0  0  0  0  0  0  0  0  0
    3.5570   -0.9103  -13.2213 H   0  0  0  0  0  0  0  0  0  0  0  0
    4.1890   -5.3988   -8.3322 H   0  0  0  0  0  0  0  0  0  0  0  0
    4.9549   -4.5388   -9.6895 H   0  0  0  0  0  0  0  0  0  0  0  0
    7.0498   -4.3354   -8.3785 H   0  0  0  0  0  0  0  0  0  0  0  0
    6.2840   -5.1954   -7.0213 H   0  0  0  0  0  0  0  0  0  0  0  0
    6.5732   -6.0407   -8.5608 H   0  0  0  0  0  0  0  0  0  0  0  0
    3.4112   -4.9365   -5.9269 H   0  0  0  0  0  0  0  0  0  0  0  0
  1  2  1  0  0  0  0
  1 35  1  0  0  0  0
  1 36  1  0  0  0  0
  1 37  1  0  0  0  0
  2  3  1  0  0  0  0
  2 38  1  0  0  0  0
  2 39  1  0  0  0  0
  3  4  1  0  0  0  0
  3 40  1  0  0  0  0
  3 41  1  0  0  0  0
  4  5  1  0  0  0  0
  4 42  1  0  0  0  0
  4 43  1  0  0  0  0
  5  6  1  0  0  0  0
  6 11  2  0  0  0  0
  6  7  1  0  0  0  0
  7  8  2  0  0  0  0
  7 15  1  0  0  0  0
  8  9  1  0  0  0  0
  8 44  1  0  0  0  0
  9 10  2  0  0  0  0
  9 12  1  0  0  0  0
 10 11  1  0  0  0  0
 10 45  1  0  0  0  0
 12 13  2  0  0  0  0
 12 14  1  0  0  0  0
 14 46  1  0  0  0  0
 14 47  1  0  0  0  0
 14 48  1  0  0  0  0
 15 23  2  0  0  0  0
 15 16  1  0  0  0  0
 16 17  1  0  0  0  0
 16 66  1  0  0  0  0
 17 21  1  0  0  0  0
 17 18  2  0  0  0  0
 18 19  1  0  0  0  0
 18 33  1  0  0  0  0
 19 20  1  0  0  0  0
 19 25  1  0  0  0  0
 20 21  2  0  0  0  0
 21 22  1  0  0  0  0
 22 23  1  0  0  0  0
 22 24  2  0  0  0  0
 25 26  1  0  0  0  0
 25 49  1  0  0  0  0
 25 50  1  0  0  0  0
 26 27  1  0  0  0  0
 26 51  1  0  0  0  0
 26 52  1  0  0  0  0
 27 32  1  0  0  0  0
 27 28  1  0  0  0  0
 28 29  1  0  0  0  0
 28 53  1  0  0  0  0
 28 54  1  0  0  0  0
 29 30  1  0  0  0  0
 29 55  1  0  0  0  0
 29 56  1  0  0  0  0
 30 31  1  0  0  0  0
 31 32  1  0  0  0  0
 31 57  1  0  0  0  0
 31 58  1  0  0  0  0
 32 59  1  0  0  0  0
 32 60  1  0  0  0  0
 33 34  1  0  0  0  0
 33 61  1  0  0  0  0
 33 62  1  0  0  0  0
 34 63  1  0  0  0  0
 34 64  1  0  0  0  0
 34 65  1  0  0  0  0
M  END
$$$$
CHEMBL446663
  -OEChem-07121202283D

 47 51  0     1  0  0  0  0  0999 V2000
   -0.0187    1.5258    0.0104 C   0  0  0  0  0  0  0  0  0  0  0  0
    0.0021   -0.0041    0.0020 C   0  0  0  0  0  0  0  0  0  0  0  0
   -1.3723   -0.5112    0.0124 N   0  0  0  0  0  0  0  0  0  0  0  0
   -1.9813   -0.7403    1.1899 C   0  0  0  0  0  0  0  0  0  0  0  0
   -1.3981   -0.5299    2.2376 O   0  0  0  0  0  0  0  0  0  0  0  0
   -3.3543   -1.2454    1.1939 C   0  0  0  0  0  0  0  0  0  0  0  0
   -3.9806   -1.4698   -0.0232 C   0  0  0  0  0  0  0  0  0  0  0  0
   -5.2277   -1.9300    0.2651 N   0  0  0  0  0  0  0  0  0  0  0  0
   -5.3440   -1.9801    1.6240 C   0  0  0  0  0  0  0  0  0  0  0  0
   -4.2349   -1.5747    2.1708 N   0  0  0  0  0  0  0  0  0  0  0  0
   -5.9103   -2.1773   -0.3781 H   0  0  0  0  0  0  0  0  0  0  0  0
   -6.5686   -2.4345    2.3756 C   0  0  0  0  0  0  0  0  0  0  0  0
   -6.1924   -3.5414    3.3266 C   0  0  0  0  0  0  0  0  0  0  0  0
   -6.2379   -4.8579    2.9076 C   0  0  0  0  0  0  0  0  0  0  0  0
   -5.8928   -5.8732    3.7800 C   0  0  0  0  0  0  0  0  0  0  0  0
   -5.5017   -5.5719    5.0712 C   0  0  0  0  0  0  0  0  0  0  0  0
   -5.4553   -4.2553    5.4899 C   0  0  0  0  0  0  0  0  0  0  0  0
   -5.7963   -3.2397    4.6162 C   0  0  0  0  0  0  0  0  0  0  0  0
   -3.3067   -1.2165   -1.1994 N   0  0  0  0  0  0  0  0  0  0  0  0
   -2.0213   -0.7398   -1.1920 C   0  0  0  0  0  0  0  0  0  0  0  0
   -1.5366   -0.5543   -2.3902 N   0  3  0  0  0  0  0  0  0  0  0  0
   -2.5248   -0.9056   -3.4127 C   0  0  1  0  0  0  0  0  0  0  0  0
   -2.1614   -1.6883   -4.0787 H   0  0  0  0  0  0  0  0  0  0  0  0
   -3.7510   -1.3745   -2.5956 C   0  0  2  0  0  0  0  0  0  0  0  0
   -4.0447   -2.3992   -2.8230 H   0  0  0  0  0  0  0  0  0  0  0  0
   -4.8712   -0.3567   -2.8884 C   0  0  0  0  0  0  0  0  0  0  0  0
   -4.1206    0.9204   -3.3396 C   0  0  0  0  0  0  0  0  0  0  0  0
   -2.9361    0.3632   -4.1869 C   0  0  0  0  0  0  0  0  0  0  0  0
    1.0039    1.9031    0.0027 H   0  0  0  0  0  0  0  0  0  0  0  0
   -0.5459    1.8868   -0.8726 H   0  0  0  0  0  0  0  0  0  0  0  0
   -0.5289    1.8773    0.9072 H   0  0  0  0  0  0  0  0  0  0  0  0
    0.5123   -0.3556   -0.8948 H   0  0  0  0  0  0  0  0  0  0  0  0
    0.5293   -0.3651    0.8851 H   0  0  0  0  0  0  0  0  0  0  0  0
   -6.9814   -1.5970    2.9380 H   0  0  0  0  0  0  0  0  0  0  0  0
   -7.3137   -2.8002    1.6691 H   0  0  0  0  0  0  0  0  0  0  0  0
   -6.5435   -5.0933    1.8989 H   0  0  0  0  0  0  0  0  0  0  0  0
   -5.9291   -6.9018    3.4528 H   0  0  0  0  0  0  0  0  0  0  0  0
   -5.2328   -6.3652    5.7529 H   0  0  0  0  0  0  0  0  0  0  0  0
   -5.1500   -4.0199    6.4987 H   0  0  0  0  0  0  0  0  0  0  0  0
   -5.7564   -2.2109    4.9422 H   0  0  0  0  0  0  0  0  0  0  0  0
   -5.5177   -0.7209   -3.6869 H   0  0  0  0  0  0  0  0  0  0  0  0
   -5.4516   -0.1592   -1.9872 H   0  0  0  0  0  0  0  0  0  0  0  0
   -4.7640    1.5497   -3.9545 H   0  0  0  0  0  0  0  0  0  0  0  0
   -3.7468    1.4735   -2.4780 H   0  0  0  0  0  0  0  0  0  0  0  0
   -2.1057    1.0678   -4.2327 H   0  0  0  0  0  0  0  0  0  0  0  0
   -3.2740    0.1048   -5.1905 H   0  0  0  0  0  0  0  0  0  0  0  0
   -0.6427   -0.2278   -2.5778 H   0  0  0  0  0  0  0  0  0  0  0  0
  1  2  1  0  0  0  0
  1 29  1  0  0  0  0
  1 30  1  0  0  0  0
  1 31  1  0  0  0  0
  2  3  1  0  0  0  0
  2 32  1  0  0  0  0
  2 33  1  0  0  0  0
  3 20  1  0  0  0  0
  3  4  1  0  0  0  0
  4  5  2  0  0  0  0
  4  6  1  0  0  0  0
  6 10  1  0  0  0  0
  6  7  2  0  0  0  0
  7 19  1  0  0  0  0
  7  8  1  0  0  0  0
  8  9  1  0  0  0  0
  8 11  1  0  0  0  0
  9 12  1  0  0  0  0
  9 10  2  0  0  0  0
 12 13  1  0  0  0  0
 12 34  1  0  0  0  0
 12 35  1  0  0  0  0
 13 18  2  0  0  0  0
 13 14  1  0  0  0  0
 14 15  2  0  0  0  0
 14 36  1  0  0  0  0
 15 16  1  0  0  0  0
 15 37  1  0  0  0  0
 16 17  2  0  0  0  0
 16 38  1  0  0  0  0
 17 18  1  0  0  0  0
 17 39  1  0  0  0  0
 18 40  1  0  0  0  0
 19 24  1  0  0  0  0
 19 20  1  0  0  0  0
 20 21  2  0  0  0  0
 21 22  1  0  0  0  0
 21 47  1  0  0  0  0
 22 23  1  0  0  0  0
 22 28  1  0  0  0  0
 22 24  1  0  0  0  0
 24 25  1  0  0  0  0
 24 26  1  0  0  0  0
 26 27  1  0  0  0  0
 26 41  1  0  0  0  0
 26 42  1  0  0  0  0
 27 28  1  0  0  0  0
 27 43  1  0  0  0  0
 27 44  1  0  0  0  0
 28 45  1  0  0  0  0
 28 46  1  0  0  0  0
M  CHG  1  21   1
M  END
$$$$
CHEMBL446663
  -OEChem-07121202283D

 47 51  0     1  0  0  0  0  0999 V2000
   -0.0187    1.5258    0.0104 C   0  0  0  0  0  0  0  0  0  0  0  0
    0.0021   -0.0041    0.0020 C   0  0  0  0  0  0  0  0  0  0  0  0
   -1.3723   -0.5112    0.0124 N   0  0  0  0  0  0  0  0  0  0  0  0
   -1.9820   -0.7405    1.1887 C   0  0  0  0  0  0  0  0  0  0  0  0
   -1.3927   -0.5275    2.2332 O   0  0  0  0  0  0  0  0  0  0  0  0
   -3.3056   -1.2281    1.2108 C   0  0  0  0  0  0  0  0  0  0  0  0
   -3.9638   -1.4638    0.0128 C   0  0  0  0  0  0  0  0  0  0  0  0
   -5.1855   -1.9146    0.3137 N   0  0  0  0  0  0  0  0  0  0  0  0
   -5.3283   -1.9742    1.6131 C   0  0  0  0  0  0  0  0  0  0  0  0
   -4.1958   -1.5610    2.2139 N   0  0  0  0  0  0  0  0  0  0  0  0
   -4.0354   -1.5077    3.1691 H   0  0  0  0  0  0  0  0  0  0  0  0
   -6.5718   -2.4351    2.3290 C   0  0  0  0  0  0  0  0  0  0  0  0
   -7.7524   -1.6267    1.8561 C   0  0  0  0  0  0  0  0  0  0  0  0
   -8.0888   -0.4517    2.5019 C   0  0  0  0  0  0  0  0  0  0  0  0
   -9.1717    0.2899    2.0681 C   0  0  0  0  0  0  0  0  0  0  0  0
   -9.9181   -0.1433    0.9883 C   0  0  0  0  0  0  0  0  0  0  0  0
   -9.5812   -1.3179    0.3418 C   0  0  0  0  0  0  0  0  0  0  0  0
   -8.4956   -2.0572    0.7729 C   0  0  0  0  0  0  0  0  0  0  0  0
   -3.3079   -1.2171   -1.1846 N   0  0  0  0  0  0  0  0  0  0  0  0
   -2.0222   -0.7402   -1.1912 C   0  0  0  0  0  0  0  0  0  0  0  0
   -1.5492   -0.5594   -2.3936 N   0  3  0  0  0  0  0  0  0  0  0  0
   -2.5480   -0.9142   -3.4052 C   0  0  1  0  0  0  0  0  0  0  0  0
   -2.1920   -1.6999   -4.0716 H   0  0  0  0  0  0  0  0  0  0  0  0
   -3.7666   -1.3792   -2.5740 C   0  0  2  0  0  0  0  0  0  0  0  0
   -4.0642   -2.4044   -2.7944 H   0  0  0  0  0  0  0  0  0  0  0  0
   -4.8879   -0.3609   -2.8607 C   0  0  0  0  0  0  0  0  0  0  0  0
   -4.1397    0.9130   -3.3243 C   0  0  0  0  0  0  0  0  0  0  0  0
   -2.9655    0.3520   -4.1802 C   0  0  0  0  0  0  0  0  0  0  0  0
    1.0039    1.9031    0.0027 H   0  0  0  0  0  0  0  0  0  0  0  0
   -0.5459    1.8868   -0.8726 H   0  0  0  0  0  0  0  0  0  0  0  0
   -0.5289    1.8773    0.9072 H   0  0  0  0  0  0  0  0  0  0  0  0
    0.5123   -0.3556   -0.8948 H   0  0  0  0  0  0  0  0  0  0  0  0
    0.5293   -0.3651    0.8851 H   0  0  0  0  0  0  0  0  0  0  0  0
   -6.7445   -3.4898    2.1149 H   0  0  0  0  0  0  0  0  0  0  0  0
   -6.4445   -2.2984    3.4028 H   0  0  0  0  0  0  0  0  0  0  0  0
   -7.5056   -0.1132    3.3456 H   0  0  0  0  0  0  0  0  0  0  0  0
   -9.4349    1.2075    2.5732 H   0  0  0  0  0  0  0  0  0  0  0  0
  -10.7646    0.4357    0.6498 H   0  0  0  0  0  0  0  0  0  0  0  0
  -10.1645   -1.6565   -0.5016 H   0  0  0  0  0  0  0  0  0  0  0  0
   -8.2301   -2.9729    0.2656 H   0  0  0  0  0  0  0  0  0  0  0  0
   -5.5424   -0.7275   -3.6516 H   0  0  0  0  0  0  0  0  0  0  0  0
   -5.4597   -0.1587   -1.9550 H   0  0  0  0  0  0  0  0  0  0  0  0
   -4.7880    1.5408   -3.9357 H   0  0  0  0  0  0  0  0  0  0  0  0
   -3.7568    1.4691   -2.4686 H   0  0  0  0  0  0  0  0  0  0  0  0
   -2.1349    1.0556   -4.2368 H   0  0  0  0  0  0  0  0  0  0  0  0
   -3.3134    0.0901   -5.1795 H   0  0  0  0  0  0  0  0  0  0  0  0
   -0.6570   -0.2338   -2.5911 H   0  0  0  0  0  0  0  0  0  0  0  0
  1  2  1  0  0  0  0
  1 29  1  0  0  0  0
  1 30  1  0  0  0  0
  1 31  1  0  0  0  0
  2  3  1  0  0  0  0
  2 32  1  0  0  0  0
  2 33  1  0  0  0  0
  3 20  1  0  0  0  0
  3  4  1  0  0  0  0
  4  5  2  0  0  0  0
  4  6  1  0  0  0  0
  6 10  1  0  0  0  0
  6  7  2  0  0  0  0
  7  8  1  0  0  0  0
  7 19  1  0  0  0  0
  8  9  2  0  0  0  0
  9 10  1  0  0  0  0
  9 12  1  0  0  0  0
 10 11  1  0  0  0  0
 12 13  1  0  0  0  0
 12 34  1  0  0  0  0
 12 35  1  0  0  0  0
 13 18  2  0  0  0  0
 13 14  1  0  0  0  0
 14 15  2  0  0  0  0
 14 36  1  0  0  0  0
 15 16  1  0  0  0  0
 15 37  1  0  0  0  0
 16 17  2  0  0  0  0
 16 38  1  0  0  0  0
 17 18  1  0  0  0  0
 17 39  1  0  0  0  0
 18 40  1  0  0  0  0
 19 24  1  0  0  0  0
 19 20  1  0  0  0  0
 20 21  2  0  0  0  0
 21 22  1  0  0  0  0
 21 47  1  0  0  0  0
 22 23  1  0  0  0  0
 22 28  1  0  0  0  0
 22 24  1  0  0  0  0
 24 25  1  0  0  0  0
 24 26  1  0  0  0  0
 26 27  1  0  0  0  0
 26 41  1  0  0  0  0
 26 42  1  0  0  0  0
 27 28  1  0  0  0  0
 27 43  1  0  0  0  0
 27 44  1  0  0  0  0
 28 45  1  0  0  0  0
 28 46  1  0  0  0  0
M  CHG  1  21   1
M  END
$$$$
CHEMBL139785
  -OEChem-07121202283D

 55 61  0     1  0  0  0  0  0999 V2000
   -0.0165    1.3628    0.0095 C   0  0  0  0  0  0  0  0  0  0  0  0
    1.1698    2.0838    0.0021 C   0  0  0  0  0  0  0  0  0  0  0  0
    2.3862    1.4376   -0.0135 C   0  0  0  0  0  0  0  0  0  0  0  0
    2.4284    0.0458   -0.0214 C   0  0  0  0  0  0  0  0  0  0  0  0
    1.2231   -0.6777   -0.0133 C   0  0  0  0  0  0  0  0  0  0  0  0
    0.0021   -0.0041    0.0020 C   0  0  0  0  0  0  0  0  0  0  0  0
    1.2934   -2.1480   -0.0219 C   0  0  0  0  0  0  0  0  0  0  0  0
    2.5744   -2.7535   -0.0380 C   0  0  0  0  0  0  0  0  0  0  0  0
    3.6874   -1.9921   -0.0449 C   0  0  0  0  0  0  0  0  0  0  0  0
    3.6240   -0.6315   -0.0374 N   0  0  0  0  0  0  0  0  0  0  0  0
    4.9010   -2.8944   -0.0614 C   0  0  2  0  0  0  0  0  0  0  0  0
    4.4244   -4.2808   -0.0638 N   0  0  0  0  0  0  0  0  0  0  0  0
    2.9595   -4.2121   -0.0492 C   0  0  0  0  0  0  0  0  0  0  0  0
    5.1813   -5.3958   -0.0778 C   0  0  0  0  0  0  0  0  0  0  0  0
    6.3952   -5.3073   -0.0901 O   0  0  0  0  0  0  0  0  0  0  0  0
    4.5430   -6.7147   -0.0782 C   0  0  0  0  0  0  0  0  0  0  0  0
    5.1943   -7.9286   -0.0860 C   0  0  0  0  0  0  0  0  0  0  0  0
    4.2050   -8.9174   -0.0824 C   0  0  0  0  0  0  0  0  0  0  0  0
    2.9987   -8.2781   -0.0726 C   0  0  0  0  0  0  0  0  0  0  0  0
    3.2143   -6.9521   -0.0651 O   0  0  0  0  0  0  0  0  0  0  0  0
    1.6760   -8.9354   -0.0658 C   0  0  0  0  0  0  0  0  0  0  0  0
    0.5014   -8.1723   -0.0617 C   0  0  0  0  0  0  0  0  0  0  0  0
   -0.7120   -8.8367   -0.0558 C   0  0  0  0  0  0  0  0  0  0  0  0
   -0.7267  -10.2203   -0.0542 C   0  0  0  0  0  0  0  0  0  0  0  0
    0.3956  -10.9135   -0.0581 N   0  0  0  0  0  0  0  0  0  0  0  0
    1.5751  -10.3278   -0.0691 C   0  0  0  0  0  0  0  0  0  0  0  0
    5.7400   -2.6447    1.1653 C   0  0  0  0  0  0  0  0  0  0  0  0
    5.3847   -3.2176    2.3723 C   0  0  0  0  0  0  0  0  0  0  0  0
    6.1514   -2.9919    3.5002 C   0  0  0  0  0  0  0  0  0  0  0  0
    7.2785   -2.1899    3.4234 C   0  0  0  0  0  0  0  0  0  0  0  0
    7.6364   -1.6128    2.2075 C   0  0  0  0  0  0  0  0  0  0  0  0
    6.8665   -1.8480    1.0799 C   0  0  0  0  0  0  0  0  0  0  0  0
    8.7708   -0.8762    2.3914 O   0  0  0  0  0  0  0  0  0  0  0  0
    8.8731   -0.6764    3.8137 C   0  0  0  0  0  0  0  0  0  0  0  0
    8.1887   -1.8150    4.3690 O   0  0  0  0  0  0  0  0  0  0  0  0
    0.2786   -2.8253   -0.0151 O   0  0  0  0  0  0  0  0  0  0  0  0
   -0.9613    1.8858    0.0259 H   0  0  0  0  0  0  0  0  0  0  0  0
    1.1386    3.1633    0.0082 H   0  0  0  0  0  0  0  0  0  0  0  0
    3.3032    2.0080   -0.0199 H   0  0  0  0  0  0  0  0  0  0  0  0
   -0.9242   -0.5595    0.0083 H   0  0  0  0  0  0  0  0  0  0  0  0
    5.4905   -2.7047   -0.9584 H   0  0  0  0  0  0  0  0  0  0  0  0
    2.5749   -4.7034    0.8446 H   0  0  0  0  0  0  0  0  0  0  0  0
    2.5575   -4.6942   -0.9403 H   0  0  0  0  0  0  0  0  0  0  0  0
    6.2627   -8.0864   -0.0935 H   0  0  0  0  0  0  0  0  0  0  0  0
    4.3653   -9.9854   -0.0869 H   0  0  0  0  0  0  0  0  0  0  0  0
    0.5420   -7.0931   -0.0627 H   0  0  0  0  0  0  0  0  0  0  0  0
   -1.6381   -8.2812   -0.0522 H   0  0  0  0  0  0  0  0  0  0  0  0
   -1.6727  -10.7413   -0.0492 H   0  0  0  0  0  0  0  0  0  0  0  0
    2.4718  -10.9296   -0.0768 H   0  0  0  0  0  0  0  0  0  0  0  0
    4.5060   -3.8425    2.4343 H   0  0  0  0  0  0  0  0  0  0  0  0
    5.8715   -3.4407    4.4418 H   0  0  0  0  0  0  0  0  0  0  0  0
    7.1442   -1.4054    0.1348 H   0  0  0  0  0  0  0  0  0  0  0  0
    9.9177   -0.6681    4.1251 H   0  0  0  0  0  0  0  0  0  0  0  0
    8.3775    0.2490    4.1071 H   0  0  0  0  0  0  0  0  0  0  0  0
    4.4504   -0.1236   -0.0431 H   0  0  0  0  0  0  0  0  0  0  0  0
  1  6  2  0  0  0  0
  1  2  1  0  0  0  0
  1 37  1  0  0  0  0
  2  3  2  0  0  0  0
  2 38  1  0  0  0  0
  3  4  1  0  0  0  0
  3 39  1  0  0  0  0
  4 10  1  0  0  0  0
  4  5  2  0  0  0  0
  5  6  1  0  0  0  0
  5  7  1  0  0  0  0
  6 40  1  0  0  0  0
  7  8  1  0  0  0  0
  7 36  2  0  0  0  0
  8 13  1  0  0  0  0
  8  9  2  0  0  0  0
  9 10  1  0  0  0  0
  9 11  1  0  0  0  0
 10 55  1  0  0  0  0
 11 12  1  0  0  0  0
 11 27  1  0  0  0  0
 11 41  1  0  0  0  0
 12 13  1  0  0  0  0
 12 14  1  0  0  0  0
 13 42  1  0  0  0  0
 13 43  1  0  0  0  0
 14 15  2  0  0  0  0
 14 16  1  0  0  0  0
 16 20  1  0  0  0  0
 16 17  2  0  0  0  0
 17 18  1  0  0  0  0
 17 44  1  0  0  0  0
 18 19  2  0  0  0  0
 18 45  1  0  0  0  0
 19 20  1  0  0  0  0
 19 21  1  0  0  0  0
 21 26  2  0  0  0  0
 21 22  1  0  0  0  0
 22 23  2  0  0  0  0
 22 46  1  0  0  0  0
 23 24  1  0  0  0  0
 23 47  1  0  0  0  0
 24 25  2  0  0  0  0
 24 48  1  0  0  0  0
 25 26  1  0  0  0  0
 26 49  1  0  0  0  0
 27 32  2  0  0  0  0
 27 28  1  0  0  0  0
 28 29  2  0  0  0  0
 28 50  1  0  0  0  0
 29 30  1  0  0  0  0
 29 51  1  0  0  0  0
 30 35  1  0  0  0  0
 30 31  2  0  0  0  0
 31 32  1  0  0  0  0
 31 33  1  0  0  0  0
 32 52  1  0  0  0  0
 33 34  1  0  0  0  0
 34 35  1  0  0  0  0
 34 53  1  0  0  0  0
 34 54  1  0  0  0  0
M  END
$$$$
CHEMBL139785
  -OEChem-07121202283D

 55 61  0     1  0  0  0  0  0999 V2000
   -0.0165    1.3628    0.0095 C   0  0  0  0  0  0  0  0  0  0  0  0
    1.1698    2.0838    0.0021 C   0  0  0  0  0  0  0  0  0  0  0  0
    2.3862    1.4376   -0.0135 C   0  0  0  0  0  0  0  0  0  0  0  0
    2.4284    0.0458   -0.0214 C   0  0  0  0  0  0  0  0  0  0  0  0
    1.2231   -0.6777   -0.0133 C   0  0  0  0  0  0  0  0  0  0  0  0
    0.0021   -0.0041    0.0020 C   0  0  0  0  0  0  0  0  0  0  0  0
    1.2934   -2.1480   -0.0219 C   0  0  0  0  0  0  0  0  0  0  0  0
    2.5744   -2.7535   -0.0380 C   0  0  0  0  0  0  0  0  0  0  0  0
    3.6874   -1.9921   -0.0449 C   0  0  0  0  0  0  0  0  0  0  0  0
    3.6240   -0.6315   -0.0374 N   0  0  0  0  0  0  0  0  0  0  0  0
    4.9010   -2.8944   -0.0614 C   0  0  1  0  0  0  0  0  0  0  0  0
    4.4244   -4.2808   -0.0638 N   0  0  0  0  0  0  0  0  0  0  0  0
    2.9595   -4.2121   -0.0492 C   0  0  0  0  0  0  0  0  0  0  0  0
    5.1813   -5.3958   -0.0778 C   0  0  0  0  0  0  0  0  0  0  0  0
    6.3952   -5.3073   -0.0901 O   0  0  0  0  0  0  0  0  0  0  0  0
    4.5430   -6.7147   -0.0782 C   0  0  0  0  0  0  0  0  0  0  0  0
    5.1943   -7.9286   -0.0860 C   0  0  0  0  0  0  0  0  0  0  0  0
    4.2050   -8.9174   -0.0824 C   0  0  0  0  0  0  0  0  0  0  0  0
    2.9987   -8.2781   -0.0726 C   0  0  0  0  0  0  0  0  0  0  0  0
    3.2143   -6.9521   -0.0651 O   0  0  0  0  0  0  0  0  0  0  0  0
    1.6760   -8.9354   -0.0658 C   0  0  0  0  0  0  0  0  0  0  0  0
    0.5014   -8.1723   -0.0617 C   0  0  0  0  0  0  0  0  0  0  0  0
   -0.7120   -8.8367   -0.0558 C   0  0  0  0  0  0  0  0  0  0  0  0
   -0.7267  -10.2203   -0.0542 C   0  0  0  0  0  0  0  0  0  0  0  0
    0.3956  -10.9135   -0.0581 N   0  0  0  0  0  0  0  0  0  0  0  0
    1.5751  -10.3278   -0.0691 C   0  0  0  0  0  0  0  0  0  0  0  0
    5.7160   -2.6321   -1.3016 C   0  0  0  0  0  0  0  0  0  0  0  0
    5.3306   -3.1832   -2.5095 C   0  0  0  0  0  0  0  0  0  0  0  0
    6.0746   -2.9451   -3.6500 C   0  0  0  0  0  0  0  0  0  0  0  0
    7.2095   -2.1531   -3.5847 C   0  0  0  0  0  0  0  0  0  0  0  0
    7.5977   -1.5979   -2.3679 C   0  0  0  0  0  0  0  0  0  0  0  0
    6.8440   -1.8362   -1.2301 C   0  0  0  0  0  0  0  0  0  0  0  0
    8.7339   -0.8674   -2.5644 O   0  0  0  0  0  0  0  0  0  0  0  0
    9.2645   -1.3137   -3.8263 C   0  0  0  0  0  0  0  0  0  0  0  0
    8.1025   -1.7704   -4.5435 O   0  0  0  0  0  0  0  0  0  0  0  0
    0.2786   -2.8253   -0.0151 O   0  0  0  0  0  0  0  0  0  0  0  0
   -0.9613    1.8858    0.0259 H   0  0  0  0  0  0  0  0  0  0  0  0
    1.1386    3.1633    0.0082 H   0  0  0  0  0  0  0  0  0  0  0  0
    3.3032    2.0080   -0.0199 H   0  0  0  0  0  0  0  0  0  0  0  0
   -0.9242   -0.5595    0.0083 H   0  0  0  0  0  0  0  0  0  0  0  0
    5.5079   -2.7138    0.8259 H   0  0  0  0  0  0  0  0  0  0  0  0
    2.5749   -4.7034    0.8446 H   0  0  0  0  0  0  0  0  0  0  0  0
    2.5575   -4.6942   -0.9403 H   0  0  0  0  0  0  0  0  0  0  0  0
    6.2627   -8.0864   -0.0935 H   0  0  0  0  0  0  0  0  0  0  0  0
    4.3653   -9.9854   -0.0869 H   0  0  0  0  0  0  0  0  0  0  0  0
    0.5420   -7.0931   -0.0627 H   0  0  0  0  0  0  0  0  0  0  0  0
   -1.6381   -8.2812   -0.0522 H   0  0  0  0  0  0  0  0  0  0  0  0
   -1.6727  -10.7413   -0.0492 H   0  0  0  0  0  0  0  0  0  0  0  0
    2.4718  -10.9296   -0.0768 H   0  0  0  0  0  0  0  0  0  0  0  0
    4.4467   -3.8015   -2.5622 H   0  0  0  0  0  0  0  0  0  0  0  0
    5.7713   -3.3769   -4.5923 H   0  0  0  0  0  0  0  0  0  0  0  0
    7.1401   -1.4033   -0.2860 H   0  0  0  0  0  0  0  0  0  0  0  0
    9.7409   -0.4881   -4.3550 H   0  0  0  0  0  0  0  0  0  0  0  0
    9.9690   -2.1321   -3.6777 H   0  0  0  0  0  0  0  0  0  0  0  0
    4.4504   -0.1236   -0.0431 H   0  0  0  0  0  0  0  0  0  0  0  0
  1  6  2  0  0  0  0
  1  2  1  0  0  0  0
  1 37  1  0  0  0  0
  2  3  2  0  0  0  0
  2 38  1  0  0  0  0
  3  4  1  0  0  0  0
  3 39  1  0  0  0  0
  4 10  1  0  0  0  0
  4  5  2  0  0  0  0
  5  6  1  0  0  0  0
  5  7  1  0  0  0  0
  6 40  1  0  0  0  0
  7  8  1  0  0  0  0
  7 36  2  0  0  0  0
  8 13  1  0  0  0  0
  8  9  2  0  0  0  0
  9 10  1  0  0  0  0
  9 11  1  0  0  0  0
 10 55  1  0  0  0  0
 11 12  1  0  0  0  0
 11 27  1  0  0  0  0
 11 41  1  0  0  0  0
 12 13  1  0  0  0  0
 12 14  1  0  0  0  0
 13 42  1  0  0  0  0
 13 43  1  0  0  0  0
 14 15  2  0  0  0  0
 14 16  1  0  0  0  0
 16 20  1  0  0  0  0
 16 17  2  0  0  0  0
 17 18  1  0  0  0  0
 17 44  1  0  0  0  0
 18 19  2  0  0  0  0
 18 45  1  0  0  0  0
 19 20  1  0  0  0  0
 19 21  1  0  0  0  0
 21 26  2  0  0  0  0
 21 22  1  0  0  0  0
 22 23  2  0  0  0  0
 22 46  1  0  0  0  0
 23 24  1  0  0  0  0
 23 47  1  0  0  0  0
 24 25  2  0  0  0  0
 24 48  1  0  0  0  0
 25 26  1  0  0  0  0
 26 49  1  0  0  0  0
 27 32  2  0  0  0  0
 27 28  1  0  0  0  0
 28 29  2  0  0  0  0
 28 50  1  0  0  0  0
 29 30  1  0  0  0  0
 29 51  1  0  0  0  0
 30 35  1  0  0  0  0
 30 31  2  0  0  0  0
 31 32  1  0  0  0  0
 31 33  1  0  0  0  0
 32 52  1  0  0  0  0
 33 34  1  0  0  0  0
 34 35  1  0  0  0  0
 34 53  1  0  0  0  0
 34 54  1  0  0  0  0
M  END
$$$$
CHEMBL563661
  -OEChem-07121202283D

 59 63  0     0  0  0  0  0  0999 V2000
   -0.0167    1.3776    0.0096 C   0  0  0  0  0  0  0  0  0  0  0  0
    1.1849    2.0698    0.0019 C   0  0  0  0  0  0  0  0  0  0  0  0
    2.3651    1.3426   -0.0133 C   0  0  0  0  0  0  0  0  0  0  0  0
    2.3054   -0.0383   -0.0202 C   0  0  0  0  0  0  0  0  0  0  0  0
    1.1443   -0.6632   -0.0129 N   0  0  0  0  0  0  0  0  0  0  0  0
    0.0021   -0.0041    0.0020 C   0  0  0  0  0  0  0  0  0  0  0  0
    3.6964    2.0488   -0.0227 C   0  0  0  0  0  0  0  0  0  0  0  0
    4.1412    2.2707    1.3554 N   0  0  0  0  0  0  0  0  0  0  0  0
    5.3456    2.9070    1.5997 C   0  0  0  0  0  0  0  0  0  0  0  0
    5.7968    3.1252    2.9864 C   0  0  0  0  0  0  0  0  0  0  0  0
    5.1157    2.7486    3.9221 O   0  0  0  0  0  0  0  0  0  0  0  0
    6.9750    3.7474    3.2058 N   0  0  0  0  0  0  0  0  0  0  0  0
    7.7277    4.1637    2.1260 C   0  0  0  0  0  0  0  0  0  0  0  0
    7.2613    3.9363    0.8170 C   0  0  0  0  0  0  0  0  0  0  0  0
    6.0881    3.3110    0.5996 N   0  0  0  0  0  0  0  0  0  0  0  0
    8.0413    4.3673   -0.2698 C   0  0  0  0  0  0  0  0  0  0  0  0
    9.2294    4.9942   -0.0125 C   0  0  0  0  0  0  0  0  0  0  0  0
    9.6341    5.1886    1.3109 C   0  0  0  0  0  0  0  0  0  0  0  0
    8.8860    4.7752    2.3240 N   0  0  0  0  0  0  0  0  0  0  0  0
   10.9220    5.8676    1.5862 C   0  0  0  0  0  0  0  0  0  0  0  0
   11.7179    6.3126    0.5308 C   0  0  0  0  0  0  0  0  0  0  0  0
   12.9157    6.9445    0.7921 C   0  0  0  0  0  0  0  0  0  0  0  0
   13.3290    7.1372    2.1008 C   0  0  0  0  0  0  0  0  0  0  0  0
   12.5418    6.6964    3.1528 C   0  0  0  0  0  0  0  0  0  0  0  0
   11.3395    6.0690    2.9016 C   0  0  0  0  0  0  0  0  0  0  0  0
   14.5032    7.7564    2.3518 F   0  0  0  0  0  0  0  0  0  0  0  0
    7.4483    3.9782    4.5729 C   0  0  0  0  0  0  0  0  0  0  0  0
    8.2895    2.7846    5.0296 C   0  0  0  0  0  0  0  0  0  0  0  0
    7.4048    1.5391    5.1126 C   0  0  0  0  0  0  0  0  0  0  0  0
    8.2459    0.3455    5.5693 C   0  0  0  0  0  0  0  0  0  0  0  0
    8.8429    0.6397    6.9470 C   0  0  0  0  0  0  0  0  0  0  0  0
    9.7276    1.8852    6.8641 C   0  0  0  0  0  0  0  0  0  0  0  0
    8.8864    3.0788    6.4073 C   0  0  0  0  0  0  0  0  0  0  0  0
   -0.9552    1.9117    0.0259 H   0  0  0  0  0  0  0  0  0  0  0  0
    1.2009    3.1496    0.0072 H   0  0  0  0  0  0  0  0  0  0  0  0
    3.2203   -0.6121   -0.0320 H   0  0  0  0  0  0  0  0  0  0  0  0
   -0.9294   -0.5505    0.0083 H   0  0  0  0  0  0  0  0  0  0  0  0
    4.4293    1.4355   -0.5468 H   0  0  0  0  0  0  0  0  0  0  0  0
    3.5953    3.0079   -0.5308 H   0  0  0  0  0  0  0  0  0  0  0  0
    3.5916    1.9716    2.0965 H   0  0  0  0  0  0  0  0  0  0  0  0
    7.7102    4.2067   -1.2851 H   0  0  0  0  0  0  0  0  0  0  0  0
    9.8509    5.3363   -0.8268 H   0  0  0  0  0  0  0  0  0  0  0  0
   11.3969    6.1622   -0.4893 H   0  0  0  0  0  0  0  0  0  0  0  0
   13.5326    7.2894   -0.0245 H   0  0  0  0  0  0  0  0  0  0  0  0
   12.8682    6.8485    4.1710 H   0  0  0  0  0  0  0  0  0  0  0  0
   10.7246    5.7298    3.7221 H   0  0  0  0  0  0  0  0  0  0  0  0
    8.0564    4.8825    4.5990 H   0  0  0  0  0  0  0  0  0  0  0  0
    6.5932    4.0960    5.2384 H   0  0  0  0  0  0  0  0  0  0  0  0
    9.0938    2.6120    4.3145 H   0  0  0  0  0  0  0  0  0  0  0  0
    6.6005    1.7117    5.8277 H   0  0  0  0  0  0  0  0  0  0  0  0
    6.9795    1.3295    4.1311 H   0  0  0  0  0  0  0  0  0  0  0  0
    7.6156   -0.5418    5.6284 H   0  0  0  0  0  0  0  0  0  0  0  0
    9.0502    0.1729    4.8542 H   0  0  0  0  0  0  0  0  0  0  0  0
    8.0386    0.8123    7.6622 H   0  0  0  0  0  0  0  0  0  0  0  0
    9.4421   -0.2107    7.2725 H   0  0  0  0  0  0  0  0  0  0  0  0
   10.1528    2.0948    7.8456 H   0  0  0  0  0  0  0  0  0  0  0  0
   10.5319    1.7126    6.1490 H   0  0  0  0  0  0  0  0  0  0  0  0
    9.5167    3.9661    6.3483 H   0  0  0  0  0  0  0  0  0  0  0  0
    8.0821    3.2514    7.1225 H   0  0  0  0  0  0  0  0  0  0  0  0
  1  6  2  0  0  0  0
  1  2  1  0  0  0  0
  1 34  1  0  0  0  0
  2  3  2  0  0  0  0
  2 35  1  0  0  0  0
  3  4  1  0  0  0  0
  3  7  1  0  0  0  0
  4  5  2  0  0  0  0
  4 36  1  0  0  0  0
  5  6  1  0  0  0  0
  6 37  1  0  0  0  0
  7  8  1  0  0  0  0
  7 38  1  0  0  0  0
  7 39  1  0  0  0  0
  8  9  1  0  0  0  0
  8 40  1  0  0  0  0
  9 15  2  0  0  0  0
  9 10  1  0  0  0  0
 10 11  2  0  0  0  0
 10 12  1  0  0  0  0
 12 13  1  0  0  0  0
 12 27  1  0  0  0  0
 13 19  2  0  0  0  0
 13 14  1  0  0  0  0
 14 15  1  0  0  0  0
 14 16  2  0  0  0  0
 16 17  1  0  0  0  0
 16 41  1  0  0  0  0
 17 18  2  0  0  0  0
 17 42  1  0  0  0  0
 18 19  1  0  0  0  0
 18 20  1  0  0  0  0
 20 25  2  0  0  0  0
 20 21  1  0  0  0  0
 21 22  2  0  0  0  0
 21 43  1  0  0  0  0
 22 23  1  0  0  0  0
 22 44  1  0  0  0  0
 23 24  2  0  0  0  0
 23 26  1  0  0  0  0
 24 25  1  0  0  0  0
 24 45  1  0  0  0  0
 25 46  1  0  0  0  0
 27 28  1  0  0  0  0
 27 47  1  0  0  0  0
 27 48  1  0  0  0  0
 28 33  1  0  0  0  0
 28 29  1  0  0  0  0
 28 49  1  0  0  0  0
 29 30  1  0  0  0  0
 29 50  1  0  0  0  0
 29 51  1  0  0  0  0
 30 31  1  0  0  0  0
 30 52  1  0  0  0  0
 30 53  1  0  0  0  0
 31 32  1  0  0  0  0
 31 54  1  0  0  0  0
 31 55  1  0  0  0  0
 32 33  1  0  0  0  0
 32 56  1  0  0  0  0
 32 57  1  0  0  0  0
 33 58  1  0  0  0  0
 33 59  1  0  0  0  0
M  END
$$$$
CHEMBL247270
  -OEChem-07121202283D

 50 53  0     1  0  0  0  0  0999 V2000
   -0.0648    1.3002    0.2101 C   0  0  0  0  0  0  0  0  0  0  0  0
   -0.0443   -0.2272    0.2957 C   0  0  0  0  0  0  0  0  0  0  0  0
    0.6563   -0.7978   -0.9390 C   0  0  0  0  0  0  0  0  0  0  0  0
    0.7106   -0.6574    1.5550 C   0  0  0  0  0  0  0  0  0  0  0  0
   -0.0250   -0.2127    2.7412 N   0  0  0  0  0  0  0  0  0  0  0  0
    0.2318    1.0347    3.2870 C   0  0  0  0  0  0  0  0  0  0  0  0
   -0.4789    1.4336    4.4120 C   0  0  0  0  0  0  0  0  0  0  0  0
   -1.4392    0.5589    4.9647 C   0  0  0  0  0  0  0  0  0  0  0  0
   -2.0753    0.8860    5.9505 O   0  0  0  0  0  0  0  0  0  0  0  0
   -1.6444   -0.6435    4.3879 N   0  0  0  0  0  0  0  0  0  0  0  0
   -0.9534   -1.0144    3.2962 C   0  0  0  0  0  0  0  0  0  0  0  0
   -1.1689   -2.1035    2.8001 O   0  0  0  0  0  0  0  0  0  0  0  0
   -2.6395   -1.5560    4.9564 C   0  0  0  0  0  0  0  0  0  0  0  0
   -0.0224    2.6971    4.7294 N   0  0  0  0  0  0  0  0  0  0  0  0
   -0.3219    3.2503    5.4678 H   0  0  0  0  0  0  0  0  0  0  0  0
    0.9186    3.0159    3.8194 C   0  0  0  0  0  0  0  0  0  0  0  0
    1.0638    2.0303    2.9708 N   0  0  0  0  0  0  0  0  0  0  0  0
    1.6871    4.3117    3.7836 C   0  0  0  0  0  0  0  0  0  0  0  0
    3.1880    4.0151    3.7954 C   0  0  2  0  0  0  0  0  0  0  0  0
    3.6230    3.4919    5.1835 C   0  0  0  0  0  0  0  0  0  0  0  0
    4.6602    4.5392    5.6921 C   0  0  2  0  0  0  0  0  0  0  0  0
    3.8123    5.8114    5.9984 C   0  0  0  0  0  0  0  0  0  0  0  0
    3.3773    6.3346    4.6103 C   0  0  0  0  0  0  0  0  0  0  0  0
    4.0034    5.3292    3.5962 C   0  0  1  0  0  0  0  0  0  0  0  0
    5.3356    4.9594    4.3391 C   0  0  0  0  0  0  0  0  0  0  0  0
    0.9576    1.6754    0.1667 H   0  0  0  0  0  0  0  0  0  0  0  0
   -0.6027    1.6067   -0.6870 H   0  0  0  0  0  0  0  0  0  0  0  0
   -0.5640    1.7067    1.0897 H   0  0  0  0  0  0  0  0  0  0  0  0
   -1.0668   -0.6024    0.3390 H   0  0  0  0  0  0  0  0  0  0  0  0
    1.6788   -0.4226   -0.9824 H   0  0  0  0  0  0  0  0  0  0  0  0
    0.6709   -1.8860   -0.8780 H   0  0  0  0  0  0  0  0  0  0  0  0
    0.1185   -0.4913   -1.8361 H   0  0  0  0  0  0  0  0  0  0  0  0
    0.8024   -1.7435    1.5704 H   0  0  0  0  0  0  0  0  0  0  0  0
    1.7040   -0.2088    1.5541 H   0  0  0  0  0  0  0  0  0  0  0  0
   -3.1017   -1.0923    5.8279 H   0  0  0  0  0  0  0  0  0  0  0  0
   -3.4046   -1.7700    4.2101 H   0  0  0  0  0  0  0  0  0  0  0  0
   -2.1527   -2.4846    5.2543 H   0  0  0  0  0  0  0  0  0  0  0  0
    1.4323    4.8603    2.8768 H   0  0  0  0  0  0  0  0  0  0  0  0
    1.4284    4.9118    4.6560 H   0  0  0  0  0  0  0  0  0  0  0  0
    3.4377    3.2916    3.0193 H   0  0  0  0  0  0  0  0  0  0  0  0
    2.7675    3.4461    5.8574 H   0  0  0  0  0  0  0  0  0  0  0  0
    4.0880    2.5105    5.0910 H   0  0  0  0  0  0  0  0  0  0  0  0
    5.3319    4.2002    6.4809 H   0  0  0  0  0  0  0  0  0  0  0  0
    2.9394    5.5513    6.5971 H   0  0  0  0  0  0  0  0  0  0  0  0
    4.4184    6.5572    6.5127 H   0  0  0  0  0  0  0  0  0  0  0  0
    2.2906    6.3317    4.5266 H   0  0  0  0  0  0  0  0  0  0  0  0
    3.7696    7.3376    4.4423 H   0  0  0  0  0  0  0  0  0  0  0  0
    4.0939    5.6826    2.5691 H   0  0  0  0  0  0  0  0  0  0  0  0
    5.9897    5.8229    4.4596 H   0  0  0  0  0  0  0  0  0  0  0  0
    5.8511    4.1252    3.8632 H   0  0  0  0  0  0  0  0  0  0  0  0
  1  2  1  0  0  0  0
  1 26  1  0  0  0  0
  1 27  1  0  0  0  0
  1 28  1  0  0  0  0
  2  3  1  0  0  0  0
  2  4  1  0  0  0  0
  2 29  1  0  0  0  0
  3 30  1  0  0  0  0
  3 31  1  0  0  0  0
  3 32  1  0  0  0  0
  4  5  1  0  0  0  0
  4 33  1  0  0  0  0
  4 34  1  0  0  0  0
  5 11  1  0  0  0  0
  5  6  1  0  0  0  0
  6 17  1  0  0  0  0
  6  7  2  0  0  0  0
  7  8  1  0  0  0  0
  7 14  1  0  0  0  0
  8  9  2  0  0  0  0
  8 10  1  0  0  0  0
 10 11  1  0  0  0  0
 10 13  1  0  0  0  0
 11 12  2  0  0  0  0
 13 35  1  0  0  0  0
 13 36  1  0  0  0  0
 13 37  1  0  0  0  0
 14 15  1  0  0  0  0
 14 16  1  0  0  0  0
 16 17  2  0  0  0  0
 16 18  1  0  0  0  0
 18 19  1  0  0  0  0
 18 38  1  0  0  0  0
 18 39  1  0  0  0  0
 19 24  1  0  0  0  0
 19 20  1  0  0  0  0
 19 40  1  0  0  0  0
 20 21  1  0  0  0  0
 20 41  1  0  0  0  0
 20 42  1  0  0  0  0
 21 25  1  0  0  0  0
 21 22  1  0  0  0  0
 21 43  1  0  0  0  0
 22 23  1  0  0  0  0
 22 44  1  0  0  0  0
 22 45  1  0  0  0  0
 23 24  1  0  0  0  0
 23 46  1  0  0  0  0
 23 47  1  0  0  0  0
 24 25  1  0  0  0  0
 24 48  1  0  0  0  0
 25 49  1  0  0  0  0
 25 50  1  0  0  0  0
M  END
$$$$
CHEMBL247270
  -OEChem-07121202283D

 50 53  0     1  0  0  0  0  0999 V2000
   -0.0187    1.5258    0.0104 C   0  0  0  0  0  0  0  0  0  0  0  0
    0.0021   -0.0041    0.0020 C   0  0  0  0  0  0  0  0  0  0  0  0
    0.7182   -0.4975   -1.2568 C   0  0  0  0  0  0  0  0  0  0  0  0
    0.7421   -0.5109    1.2415 C   0  0  0  0  0  0  0  0  0  0  0  0
   -0.0083   -0.1401    2.4439 N   0  0  0  0  0  0  0  0  0  0  0  0
    0.2408    1.0713    3.0685 C   0  0  0  0  0  0  0  0  0  0  0  0
   -0.4839    1.4001    4.2072 C   0  0  0  0  0  0  0  0  0  0  0  0
   -1.4501    0.4930    4.6932 C   0  0  0  0  0  0  0  0  0  0  0  0
   -2.0984    0.7587    5.6895 O   0  0  0  0  0  0  0  0  0  0  0  0
   -1.6472   -0.6717    4.0410 N   0  0  0  0  0  0  0  0  0  0  0  0
   -0.9427   -0.9746    2.9371 C   0  0  0  0  0  0  0  0  0  0  0  0
   -1.1512   -2.0311    2.3723 O   0  0  0  0  0  0  0  0  0  0  0  0
   -2.6484   -1.6176    4.5402 C   0  0  0  0  0  0  0  0  0  0  0  0
   -0.0324    2.6418    4.6073 N   0  0  0  0  0  0  0  0  0  0  0  0
   -0.3413    3.1484    5.3747 H   0  0  0  0  0  0  0  0  0  0  0  0
    0.9193    3.0161    3.7302 C   0  0  0  0  0  0  0  0  0  0  0  0
    1.0757    2.0846    2.8244 N   0  0  0  0  0  0  0  0  0  0  0  0
    1.6871    4.3117    3.7836 C   0  0  0  0  0  0  0  0  0  0  0  0
    3.1880    4.0151    3.7954 C   0  0  2  0  0  0  0  0  0  0  0  0
    3.6002    3.3751    5.1408 C   0  0  0  0  0  0  0  0  0  0  0  0
    4.6273    4.3750    5.7546 C   0  0  1  0  0  0  0  0  0  0  0  0
    5.8907    4.2408    4.8508 C   0  0  0  0  0  0  0  0  0  0  0  0
    5.4785    4.8808    3.5054 C   0  0  0  0  0  0  0  0  0  0  0  0
    4.0048    5.3414    3.7231 C   0  0  2  0  0  0  0  0  0  0  0  0
    4.0465    5.7395    5.2407 C   0  0  0  0  0  0  0  0  0  0  0  0
    1.0039    1.9031    0.0027 H   0  0  0  0  0  0  0  0  0  0  0  0
   -0.5459    1.8868   -0.8726 H   0  0  0  0  0  0  0  0  0  0  0  0
   -0.5289    1.8773    0.9072 H   0  0  0  0  0  0  0  0  0  0  0  0
   -1.0205   -0.3814    0.0098 H   0  0  0  0  0  0  0  0  0  0  0  0
    1.7408   -0.1202   -1.2645 H   0  0  0  0  0  0  0  0  0  0  0  0
    0.7330   -1.5874   -1.2628 H   0  0  0  0  0  0  0  0  0  0  0  0
    0.1910   -0.1364   -2.1398 H   0  0  0  0  0  0  0  0  0  0  0  0
    0.8346   -1.5958    1.1912 H   0  0  0  0  0  0  0  0  0  0  0  0
    1.7350   -0.0630    1.2804 H   0  0  0  0  0  0  0  0  0  0  0  0
   -3.1216   -1.2084    5.4328 H   0  0  0  0  0  0  0  0  0  0  0  0
   -3.4041   -1.7853    3.7728 H   0  0  0  0  0  0  0  0  0  0  0  0
   -2.1644   -2.5627    4.7862 H   0  0  0  0  0  0  0  0  0  0  0  0
    1.4428    4.9151    2.9093 H   0  0  0  0  0  0  0  0  0  0  0  0
    1.4173    4.8569    4.6881 H   0  0  0  0  0  0  0  0  0  0  0  0
    3.4517    3.3606    2.9647 H   0  0  0  0  0  0  0  0  0  0  0  0
    2.7336    3.2719    5.7938 H   0  0  0  0  0  0  0  0  0  0  0  0
    4.0681    2.4052    4.9726 H   0  0  0  0  0  0  0  0  0  0  0  0
    4.7870    4.2939    6.8298 H   0  0  0  0  0  0  0  0  0  0  0  0
    6.7298    4.7822    5.2878 H   0  0  0  0  0  0  0  0  0  0  0  0
    6.1470    3.1909    4.7094 H   0  0  0  0  0  0  0  0  0  0  0  0
    6.1149    5.7368    3.2810 H   0  0  0  0  0  0  0  0  0  0  0  0
    5.5321    4.1455    2.7026 H   0  0  0  0  0  0  0  0  0  0  0  0
    3.6326    6.0928    3.0267 H   0  0  0  0  0  0  0  0  0  0  0  0
    3.0512    5.9362    5.6392 H   0  0  0  0  0  0  0  0  0  0  0  0
    4.7277    6.5698    5.4269 H   0  0  0  0  0  0  0  0  0  0  0  0
  1  2  1  0  0  0  0
  1 26  1  0  0  0  0
  1 27  1  0  0  0  0
  1 28  1  0  0  0  0
  2  3  1  0  0  0  0
  2  4  1  0  0  0  0
  2 29  1  0  0  0  0
  3 30  1  0  0  0  0
  3 31  1  0  0  0  0
  3 32  1  0  0  0  0
  4  5  1  0  0  0  0
  4 33  1  0  0  0  0
  4 34  1  0  0  0  0
  5 11  1  0  0  0  0
  5  6  1  0  0  0  0
  6 17  1  0  0  0  0
  6  7  2  0  0  0  0
  7  8  1  0  0  0  0
  7 14  1  0  0  0  0
  8  9  2  0  0  0  0
  8 10  1  0  0  0  0
 10 11  1  0  0  0  0
 10 13  1  0  0  0  0
 11 12  2  0  0  0  0
 13 35  1  0  0  0  0
 13 36  1  0  0  0  0
 13 37  1  0  0  0  0
 14 15  1  0  0  0  0
 14 16  1  0  0  0  0
 16 17  2  0  0  0  0
 16 18  1  0  0  0  0
 18 19  1  0  0  0  0
 18 38  1  0  0  0  0
 18 39  1  0  0  0  0
 19 24  1  0  0  0  0
 19 20  1  0  0  0  0
 19 40  1  0  0  0  0
 20 21  1  0  0  0  0
 20 41  1  0  0  0  0
 20 42  1  0  0  0  0
 21 25  1  0  0  0  0
 21 22  1  0  0  0  0
 21 43  1  0  0  0  0
 22 23  1  0  0  0  0
 22 44  1  0  0  0  0
 22 45  1  0  0  0  0
 23 24  1  0  0  0  0
 23 46  1  0  0  0  0
 23 47  1  0  0  0  0
 24 25  1  0  0  0  0
 24 48  1  0  0  0  0
 25 49  1  0  0  0  0
 25 50  1  0  0  0  0
M  END
$$$$
CHEMBL247270
  -OEChem-07121202283D

 50 53  0     1  0  0  0  0  0999 V2000
   -0.0187    1.5258    0.0104 C   0  0  0  0  0  0  0  0  0  0  0  0
    0.0021   -0.0041    0.0020 C   0  0  0  0  0  0  0  0  0  0  0  0
    0.7182   -0.4975   -1.2568 C   0  0  0  0  0  0  0  0  0  0  0  0
    0.7421   -0.5109    1.2415 C   0  0  0  0  0  0  0  0  0  0  0  0
   -0.0083   -0.1401    2.4439 N   0  0  0  0  0  0  0  0  0  0  0  0
    0.2408    1.0713    3.0685 C   0  0  0  0  0  0  0  0  0  0  0  0
   -0.4839    1.4001    4.2072 C   0  0  0  0  0  0  0  0  0  0  0  0
   -1.4501    0.4930    4.6932 C   0  0  0  0  0  0  0  0  0  0  0  0
   -2.0984    0.7587    5.6895 O   0  0  0  0  0  0  0  0  0  0  0  0
   -1.6472   -0.6717    4.0410 N   0  0  0  0  0  0  0  0  0  0  0  0
   -0.9427   -0.9746    2.9371 C   0  0  0  0  0  0  0  0  0  0  0  0
   -1.1512   -2.0311    2.3723 O   0  0  0  0  0  0  0  0  0  0  0  0
   -2.6484   -1.6176    4.5402 C   0  0  0  0  0  0  0  0  0  0  0  0
   -0.0324    2.6418    4.6073 N   0  0  0  0  0  0  0  0  0  0  0  0
   -0.3413    3.1484    5.3747 H   0  0  0  0  0  0  0  0  0  0  0  0
    0.9193    3.0161    3.7302 C   0  0  0  0  0  0  0  0  0  0  0  0
    1.0757    2.0846    2.8244 N   0  0  0  0  0  0  0  0  0  0  0  0
    1.6871    4.3117    3.7836 C   0  0  0  0  0  0  0  0  0  0  0  0
    3.1880    4.0151    3.7954 C   0  0  1  0  0  0  0  0  0  0  0  0
    3.6392    3.4641    2.4235 C   0  0  0  0  0  0  0  0  0  0  0  0
    4.6825    4.5009    1.9060 C   0  0  2  0  0  0  0  0  0  0  0  0
    5.9196    4.3068    2.8350 C   0  0  0  0  0  0  0  0  0  0  0  0
    5.4684    4.8579    4.2070 C   0  0  0  0  0  0  0  0  0  0  0  0
    4.0011    5.3330    3.9777 C   0  0  1  0  0  0  0  0  0  0  0  0
    4.0859    5.8295    2.4912 C   0  0  0  0  0  0  0  0  0  0  0  0
    1.0039    1.9031    0.0027 H   0  0  0  0  0  0  0  0  0  0  0  0
   -0.5459    1.8868   -0.8726 H   0  0  0  0  0  0  0  0  0  0  0  0
   -0.5289    1.8773    0.9072 H   0  0  0  0  0  0  0  0  0  0  0  0
   -1.0205   -0.3814    0.0098 H   0  0  0  0  0  0  0  0  0  0  0  0
    1.7408   -0.1202   -1.2645 H   0  0  0  0  0  0  0  0  0  0  0  0
    0.7330   -1.5874   -1.2628 H   0  0  0  0  0  0  0  0  0  0  0  0
    0.1910   -0.1364   -2.1398 H   0  0  0  0  0  0  0  0  0  0  0  0
    0.8346   -1.5958    1.1912 H   0  0  0  0  0  0  0  0  0  0  0  0
    1.7350   -0.0630    1.2804 H   0  0  0  0  0  0  0  0  0  0  0  0
   -3.1216   -1.2084    5.4328 H   0  0  0  0  0  0  0  0  0  0  0  0
   -3.4041   -1.7853    3.7728 H   0  0  0  0  0  0  0  0  0  0  0  0
   -2.1644   -2.5627    4.7862 H   0  0  0  0  0  0  0  0  0  0  0  0
    1.4428    4.9151    2.9093 H   0  0  0  0  0  0  0  0  0  0  0  0
    1.4173    4.8569    4.6881 H   0  0  0  0  0  0  0  0  0  0  0  0
    3.4284    3.3075    4.5889 H   0  0  0  0  0  0  0  0  0  0  0  0
    4.1030    2.4847    2.5413 H   0  0  0  0  0  0  0  0  0  0  0  0
    2.7918    3.4045    1.7406 H   0  0  0  0  0  0  0  0  0  0  0  0
    4.8730    4.4901    0.8328 H   0  0  0  0  0  0  0  0  0  0  0  0
    6.1728    3.2496    2.9148 H   0  0  0  0  0  0  0  0  0  0  0  0
    6.7704    4.8748    2.4586 H   0  0  0  0  0  0  0  0  0  0  0  0
    5.4997    4.0716    4.9612 H   0  0  0  0  0  0  0  0  0  0  0  0
    6.0973    5.6968    4.5050 H   0  0  0  0  0  0  0  0  0  0  0  0
    3.6084    6.0377    4.7107 H   0  0  0  0  0  0  0  0  0  0  0  0
    4.7714    6.6695    2.3792 H   0  0  0  0  0  0  0  0  0  0  0  0
    3.1023    6.0527    2.0780 H   0  0  0  0  0  0  0  0  0  0  0  0
  1  2  1  0  0  0  0
  1 26  1  0  0  0  0
  1 27  1  0  0  0  0
  1 28  1  0  0  0  0
  2  3  1  0  0  0  0
  2  4  1  0  0  0  0
  2 29  1  0  0  0  0
  3 30  1  0  0  0  0
  3 31  1  0  0  0  0
  3 32  1  0  0  0  0
  4  5  1  0  0  0  0
  4 33  1  0  0  0  0
  4 34  1  0  0  0  0
  5 11  1  0  0  0  0
  5  6  1  0  0  0  0
  6 17  1  0  0  0  0
  6  7  2  0  0  0  0
  7  8  1  0  0  0  0
  7 14  1  0  0  0  0
  8  9  2  0  0  0  0
  8 10  1  0  0  0  0
 10 11  1  0  0  0  0
 10 13  1  0  0  0  0
 11 12  2  0  0  0  0
 13 35  1  0  0  0  0
 13 36  1  0  0  0  0
 13 37  1  0  0  0  0
 14 15  1  0  0  0  0
 14 16  1  0  0  0  0
 16 17  2  0  0  0  0
 16 18  1  0  0  0  0
 18 19  1  0  0  0  0
 18 38  1  0  0  0  0
 18 39  1  0  0  0  0
 19 24  1  0  0  0  0
 19 20  1  0  0  0  0
 19 40  1  0  0  0  0
 20 21  1  0  0  0  0
 20 41  1  0  0  0  0
 20 42  1  0  0  0  0
 21 25  1  0  0  0  0
 21 22  1  0  0  0  0
 21 43  1  0  0  0  0
 22 23  1  0  0  0  0
 22 44  1  0  0  0  0
 22 45  1  0  0  0  0
 23 24  1  0  0  0  0
 23 46  1  0  0  0  0
 23 47  1  0  0  0  0
 24 25  1  0  0  0  0
 24 48  1  0  0  0  0
 25 49  1  0  0  0  0
 25 50  1  0  0  0  0
M  END
$$$$
CHEMBL247270
  -OEChem-07121202283D

 50 53  0     1  0  0  0  0  0999 V2000
   -0.1015    1.1217    0.3876 C   0  0  0  0  0  0  0  0  0  0  0  0
   -0.0804   -0.3994    0.5514 C   0  0  0  0  0  0  0  0  0  0  0  0
    0.6076   -1.0331   -0.6593 C   0  0  0  0  0  0  0  0  0  0  0  0
    0.6873   -0.7648    1.8234 C   0  0  0  0  0  0  0  0  0  0  0  0
   -0.0361   -0.2591    2.9926 N   0  0  0  0  0  0  0  0  0  0  0  0
    0.2263    1.0144    3.4709 C   0  0  0  0  0  0  0  0  0  0  0  0
   -0.4729    1.4711    4.5811 C   0  0  0  0  0  0  0  0  0  0  0  0
   -1.4275    0.6267    5.1877 C   0  0  0  0  0  0  0  0  0  0  0  0
   -2.0536    1.0044    6.1618 O   0  0  0  0  0  0  0  0  0  0  0  0
   -1.6388   -0.6037    4.6756 N   0  0  0  0  0  0  0  0  0  0  0  0
   -0.9590   -1.0307    3.5975 C   0  0  0  0  0  0  0  0  0  0  0  0
   -1.1797   -2.1437    3.1602 O   0  0  0  0  0  0  0  0  0  0  0  0
   -2.6282   -1.4851    5.3004 C   0  0  0  0  0  0  0  0  0  0  0  0
   -0.0129    2.7490    4.8285 N   0  0  0  0  0  0  0  0  0  0  0  0
   -0.3048    3.3396    5.5405 H   0  0  0  0  0  0  0  0  0  0  0  0
    0.9188    3.0200    3.8938 C   0  0  0  0  0  0  0  0  0  0  0  0
    1.0553    1.9919    3.0955 N   0  0  0  0  0  0  0  0  0  0  0  0
    1.6871    4.3117    3.7836 C   0  0  0  0  0  0  0  0  0  0  0  0
    3.1880    4.0151    3.7954 C   0  0  1  0  0  0  0  0  0  0  0  0
    3.6159    3.3481    2.4682 C   0  0  0  0  0  0  0  0  0  0  0  0
    4.6503    4.3355    1.8464 C   0  0  1  0  0  0  0  0  0  0  0  0
    3.8005    5.5685    1.4119 C   0  0  0  0  0  0  0  0  0  0  0  0
    3.3725    6.2355    2.7391 C   0  0  0  0  0  0  0  0  0  0  0  0
    4.0040    5.3426    3.8506 C   0  0  2  0  0  0  0  0  0  0  0  0
    5.3325    4.8961    3.1440 C   0  0  0  0  0  0  0  0  0  0  0  0
    0.9205    1.4935    0.3147 H   0  0  0  0  0  0  0  0  0  0  0  0
   -0.6484    1.3820   -0.5186 H   0  0  0  0  0  0  0  0  0  0  0  0
   -0.5917    1.5732    1.2502 H   0  0  0  0  0  0  0  0  0  0  0  0
   -1.1024   -0.7712    0.6244 H   0  0  0  0  0  0  0  0  0  0  0  0
    1.6297   -0.6613   -0.7323 H   0  0  0  0  0  0  0  0  0  0  0  0
    0.6227   -2.1168   -0.5427 H   0  0  0  0  0  0  0  0  0  0  0  0
    0.0607   -0.7728   -1.5656 H   0  0  0  0  0  0  0  0  0  0  0  0
    0.7791   -1.8486    1.8937 H   0  0  0  0  0  0  0  0  0  0  0  0
    1.6807   -0.3175    1.7894 H   0  0  0  0  0  0  0  0  0  0  0  0
   -3.0815   -0.9769    6.1515 H   0  0  0  0  0  0  0  0  0  0  0  0
   -3.4008   -1.7367    4.5738 H   0  0  0  0  0  0  0  0  0  0  0  0
   -2.1385   -2.3975    5.6407 H   0  0  0  0  0  0  0  0  0  0  0  0
    1.4231    4.8132    2.8525 H   0  0  0  0  0  0  0  0  0  0  0  0
    1.4374    4.9560    4.6266 H   0  0  0  0  0  0  0  0  0  0  0  0
    3.4419    3.3776    4.6423 H   0  0  0  0  0  0  0  0  0  0  0  0
    4.0817    2.3818    2.6614 H   0  0  0  0  0  0  0  0  0  0  0  0
    2.7571    3.2316    1.8073 H   0  0  0  0  0  0  0  0  0  0  0  0
    5.3180    3.9150    1.0945 H   0  0  0  0  0  0  0  0  0  0  0  0
    4.4037    6.2557    0.8186 H   0  0  0  0  0  0  0  0  0  0  0  0
    2.9246    5.2469    0.8486 H   0  0  0  0  0  0  0  0  0  0  0  0
    3.7653    7.2505    2.7983 H   0  0  0  0  0  0  0  0  0  0  0  0
    2.2862    6.2417    2.8283 H   0  0  0  0  0  0  0  0  0  0  0  0
    4.0998    5.8026    4.8341 H   0  0  0  0  0  0  0  0  0  0  0  0
    5.8506    4.1167    3.7028 H   0  0  0  0  0  0  0  0  0  0  0  0
    5.9857    5.7419    2.9296 H   0  0  0  0  0  0  0  0  0  0  0  0
  1  2  1  0  0  0  0
  1 26  1  0  0  0  0
  1 27  1  0  0  0  0
  1 28  1  0  0  0  0
  2  3  1  0  0  0  0
  2  4  1  0  0  0  0
  2 29  1  0  0  0  0
  3 30  1  0  0  0  0
  3 31  1  0  0  0  0
  3 32  1  0  0  0  0
  4  5  1  0  0  0  0
  4 33  1  0  0  0  0
  4 34  1  0  0  0  0
  5 11  1  0  0  0  0
  5  6  1  0  0  0  0
  6 17  1  0  0  0  0
  6  7  2  0  0  0  0
  7  8  1  0  0  0  0
  7 14  1  0  0  0  0
  8  9  2  0  0  0  0
  8 10  1  0  0  0  0
 10 11  1  0  0  0  0
 10 13  1  0  0  0  0
 11 12  2  0  0  0  0
 13 35  1  0  0  0  0
 13 36  1  0  0  0  0
 13 37  1  0  0  0  0
 14 15  1  0  0  0  0
 14 16  1  0  0  0  0
 16 17  2  0  0  0  0
 16 18  1  0  0  0  0
 18 19  1  0  0  0  0
 18 38  1  0  0  0  0
 18 39  1  0  0  0  0
 19 24  1  0  0  0  0
 19 20  1  0  0  0  0
 19 40  1  0  0  0  0
 20 21  1  0  0  0  0
 20 41  1  0  0  0  0
 20 42  1  0  0  0  0
 21 25  1  0  0  0  0
 21 22  1  0  0  0  0
 21 43  1  0  0  0  0
 22 23  1  0  0  0  0
 22 44  1  0  0  0  0
 22 45  1  0  0  0  0
 23 24  1  0  0  0  0
 23 46  1  0  0  0  0
 23 47  1  0  0  0  0
 24 25  1  0  0  0  0
 24 48  1  0  0  0  0
 25 49  1  0  0  0  0
 25 50  1  0  0  0  0
M  END
$$$$
CHEMBL561548
  -OEChem-07121202283D

 63 66  0     0  0  0  0  0  0999 V2000
   -0.0187    1.5258    0.0104 C   0  0  0  0  0  0  0  0  0  0  0  0
    0.0021   -0.0041    0.0020 C   0  0  0  0  0  0  0  0  0  0  0  0
    0.7182   -0.4975   -1.2568 C   0  0  0  0  0  0  0  0  0  0  0  0
    0.7376   -1.9263   -1.2646 O   0  0  0  0  0  0  0  0  0  0  0  0
    1.3873   -2.4925   -2.4045 C   0  0  0  0  0  0  0  0  0  0  0  0
    1.3486   -4.0190   -2.3077 C   0  0  0  0  0  0  0  0  0  0  0  0
   -0.0404   -4.4782   -2.3855 N   0  0  0  0  0  0  0  0  0  0  0  0
   -0.7967   -4.6143   -1.2385 C   0  0  0  0  0  0  0  0  0  0  0  0
   -2.1307   -5.0560   -1.3268 C   0  0  0  0  0  0  0  0  0  0  0  0
   -2.8851   -5.1885   -0.1485 C   0  0  0  0  0  0  0  0  0  0  0  0
   -2.2912   -4.8816    1.0448 C   0  0  0  0  0  0  0  0  0  0  0  0
   -0.9626   -4.4484    1.0624 C   0  0  0  0  0  0  0  0  0  0  0  0
   -0.2656   -4.3295   -0.0588 N   0  0  0  0  0  0  0  0  0  0  0  0
   -0.3222   -4.1162    2.3566 C   0  0  0  0  0  0  0  0  0  0  0  0
   -1.0408   -4.2417    3.5453 C   0  0  0  0  0  0  0  0  0  0  0  0
   -0.4403   -3.9318    4.7477 C   0  0  0  0  0  0  0  0  0  0  0  0
    0.8749   -3.4958    4.7758 C   0  0  0  0  0  0  0  0  0  0  0  0
    1.5929   -3.3690    3.5972 C   0  0  0  0  0  0  0  0  0  0  0  0
    1.0029   -3.6825    2.3905 C   0  0  0  0  0  0  0  0  0  0  0  0
    1.4588   -3.1929    5.9558 F   0  0  0  0  0  0  0  0  0  0  0  0
   -2.6845   -5.3503   -2.5191 N   0  0  0  0  0  0  0  0  0  0  0  0
   -1.9970   -5.2329   -3.6275 C   0  0  0  0  0  0  0  0  0  0  0  0
   -0.5985   -4.7681   -3.5803 C   0  0  0  0  0  0  0  0  0  0  0  0
    0.0464   -4.6512   -4.6059 O   0  0  0  0  0  0  0  0  0  0  0  0
   -2.5842   -5.5401   -4.8424 N   0  0  0  0  0  0  0  0  0  0  0  0
   -3.9753   -5.9969   -4.8889 C   0  0  0  0  0  0  0  0  0  0  0  0
   -4.3754   -6.2660   -6.3410 C   0  0  0  0  0  0  0  0  0  0  0  0
   -5.7704   -6.7240   -6.3877 N   0  0  0  0  0  0  0  0  0  0  0  0
   -5.9157   -8.0371   -5.7427 C   0  0  0  0  0  0  0  0  0  0  0  0
   -7.3903   -8.4482   -5.7607 C   0  0  0  0  0  0  0  0  0  0  0  0
   -7.8623   -8.4529   -7.1107 O   0  0  0  0  0  0  0  0  0  0  0  0
   -7.7364   -7.1896   -7.7690 C   0  0  0  0  0  0  0  0  0  0  0  0
   -6.2652   -6.7657   -7.7714 C   0  0  0  0  0  0  0  0  0  0  0  0
    1.0039    1.9031    0.0027 H   0  0  0  0  0  0  0  0  0  0  0  0
   -0.5459    1.8868   -0.8726 H   0  0  0  0  0  0  0  0  0  0  0  0
   -0.5289    1.8773    0.9072 H   0  0  0  0  0  0  0  0  0  0  0  0
    0.5293   -0.3651    0.8851 H   0  0  0  0  0  0  0  0  0  0  0  0
   -1.0205   -0.3814    0.0098 H   0  0  0  0  0  0  0  0  0  0  0  0
    0.1910   -0.1364   -2.1398 H   0  0  0  0  0  0  0  0  0  0  0  0
    1.7408   -0.1202   -1.2645 H   0  0  0  0  0  0  0  0  0  0  0  0
    0.8740   -2.1729   -3.3114 H   0  0  0  0  0  0  0  0  0  0  0  0
    2.4238   -2.1566   -2.4361 H   0  0  0  0  0  0  0  0  0  0  0  0
    1.9203   -4.4498   -3.1297 H   0  0  0  0  0  0  0  0  0  0  0  0
    1.7828   -4.3340   -1.3589 H   0  0  0  0  0  0  0  0  0  0  0  0
   -3.9108   -5.5248   -0.1844 H   0  0  0  0  0  0  0  0  0  0  0  0
   -2.8453   -4.9731    1.9672 H   0  0  0  0  0  0  0  0  0  0  0  0
   -2.0660   -4.5807    3.5243 H   0  0  0  0  0  0  0  0  0  0  0  0
   -0.9959   -4.0287    5.6687 H   0  0  0  0  0  0  0  0  0  0  0  0
    2.6175   -3.0285    3.6240 H   0  0  0  0  0  0  0  0  0  0  0  0
    1.5646   -3.5877    1.4730 H   0  0  0  0  0  0  0  0  0  0  0  0
   -2.0746   -5.4530   -5.6631 H   0  0  0  0  0  0  0  0  0  0  0  0
   -4.0763   -6.9138   -4.3083 H   0  0  0  0  0  0  0  0  0  0  0  0
   -4.6244   -5.2281   -4.4697 H   0  0  0  0  0  0  0  0  0  0  0  0
   -4.2745   -5.3490   -6.9216 H   0  0  0  0  0  0  0  0  0  0  0  0
   -3.7264   -7.0348   -6.7602 H   0  0  0  0  0  0  0  0  0  0  0  0
   -5.3252   -8.7760   -6.2844 H   0  0  0  0  0  0  0  0  0  0  0  0
   -5.5672   -7.9767   -4.7117 H   0  0  0  0  0  0  0  0  0  0  0  0
   -7.4952   -9.4461   -5.3349 H   0  0  0  0  0  0  0  0  0  0  0  0
   -7.9732   -7.7383   -5.1738 H   0  0  0  0  0  0  0  0  0  0  0  0
   -8.0915   -7.2772   -8.7958 H   0  0  0  0  0  0  0  0  0  0  0  0
   -8.3294   -6.4431   -7.2406 H   0  0  0  0  0  0  0  0  0  0  0  0
   -6.1719   -5.7773   -8.2213 H   0  0  0  0  0  0  0  0  0  0  0  0
   -5.6804   -7.4843   -8.3456 H   0  0  0  0  0  0  0  0  0  0  0  0
  1  2  1  0  0  0  0
  1 34  1  0  0  0  0
  1 35  1  0  0  0  0
  1 36  1  0  0  0  0
  2  3  1  0  0  0  0
  2 37  1  0  0  0  0
  2 38  1  0  0  0  0
  3  4  1  0  0  0  0
  3 39  1  0  0  0  0
  3 40  1  0  0  0  0
  4  5  1  0  0  0  0
  5  6  1  0  0  0  0
  5 41  1  0  0  0  0
  5 42  1  0  0  0  0
  6  7  1  0  0  0  0
  6 43  1  0  0  0  0
  6 44  1  0  0  0  0
  7 23  1  0  0  0  0
  7  8  1  0  0  0  0
  8 13  2  0  0  0  0
  8  9  1  0  0  0  0
  9 10  2  0  0  0  0
  9 21  1  0  0  0  0
 10 11  1  0  0  0  0
 10 45  1  0  0  0  0
 11 12  2  0  0  0  0
 11 46  1  0  0  0  0
 12 13  1  0  0  0  0
 12 14  1  0  0  0  0
 14 19  2  0  0  0  0
 14 15  1  0  0  0  0
 15 16  2  0  0  0  0
 15 47  1  0  0  0  0
 16 17  1  0  0  0  0
 16 48  1  0  0  0  0
 17 18  2  0  0  0  0
 17 20  1  0  0  0  0
 18 19  1  0  0  0  0
 18 49  1  0  0  0  0
 19 50  1  0  0  0  0
 21 22  2  0  0  0  0
 22 23  1  0  0  0  0
 22 25  1  0  0  0  0
 23 24  2  0  0  0  0
 25 26  1  0  0  0  0
 25 51  1  0  0  0  0
 26 27  1  0  0  0  0
 26 52  1  0  0  0  0
 26 53  1  0  0  0  0
 27 28  1  0  0  0  0
 27 54  1  0  0  0  0
 27 55  1  0  0  0  0
 28 33  1  0  0  0  0
 28 29  1  0  0  0  0
 29 30  1  0  0  0  0
 29 56  1  0  0  0  0
 29 57  1  0  0  0  0
 30 31  1  0  0  0  0
 30 58  1  0  0  0  0
 30 59  1  0  0  0  0
 31 32  1  0  0  0  0
 32 33  1  0  0  0  0
 32 60  1  0  0  0  0
 32 61  1  0  0  0  0
 33 62  1  0  0  0  0
 33 63  1  0  0  0  0
M  END
$$$$
CHEMBL561548
  -OEChem-07121202283D

 64 67  0     0  0  0  0  0  0999 V2000
   -0.0187    1.5258    0.0104 C   0  0  0  0  0  0  0  0  0  0  0  0
    0.0021   -0.0041    0.0020 C   0  0  0  0  0  0  0  0  0  0  0  0
   -1.4333   -0.5336    0.0129 C   0  0  0  0  0  0  0  0  0  0  0  0
   -1.4139   -1.9625    0.0050 O   0  0  0  0  0  0  0  0  0  0  0  0
   -2.7113   -2.5614    0.0142 C   0  0  0  0  0  0  0  0  0  0  0  0
   -2.5698   -4.0848    0.0047 C   0  0  0  0  0  0  0  0  0  0  0  0
   -1.9315   -4.5238    1.2481 N   0  0  0  0  0  0  0  0  0  0  0  0
   -0.5571   -4.6251    1.3301 C   0  0  0  0  0  0  0  0  0  0  0  0
    0.0442   -5.0478    2.5312 C   0  0  0  0  0  0  0  0  0  0  0  0
    1.4447   -5.1449    2.5959 C   0  0  0  0  0  0  0  0  0  0  0  0
    2.1733   -4.8235    1.4838 C   0  0  0  0  0  0  0  0  0  0  0  0
    1.5138   -4.4107    0.3229 C   0  0  0  0  0  0  0  0  0  0  0  0
    0.1918   -4.3252    0.2794 N   0  0  0  0  0  0  0  0  0  0  0  0
    2.3060   -4.0627   -0.8800 C   0  0  0  0  0  0  0  0  0  0  0  0
    3.6975   -4.1533   -0.8515 C   0  0  0  0  0  0  0  0  0  0  0  0
    4.4306   -3.8287   -1.9738 C   0  0  0  0  0  0  0  0  0  0  0  0
    3.7867   -3.4128   -3.1284 C   0  0  0  0  0  0  0  0  0  0  0  0
    2.4043   -3.3208   -3.1614 C   0  0  0  0  0  0  0  0  0  0  0  0
    1.6623   -3.6491   -2.0460 C   0  0  0  0  0  0  0  0  0  0  0  0
    4.5091   -3.0955   -4.2251 F   0  0  0  0  0  0  0  0  0  0  0  0
   -0.7041   -5.3571    3.6078 N   0  0  0  0  0  0  0  0  0  0  0  0
   -2.0102   -5.2726    3.5662 C   0  0  0  0  0  0  0  0  0  0  0  0
   -2.6799   -4.8289    2.3298 C   0  0  0  0  0  0  0  0  0  0  0  0
   -3.8931   -4.7425    2.2836 O   0  0  0  0  0  0  0  0  0  0  0  0
   -2.7610   -5.5949    4.6831 N   0  0  0  0  0  0  0  0  0  0  0  0
   -2.0946   -6.0308    5.9128 C   0  0  0  0  0  0  0  0  0  0  0  0
   -3.1451   -6.3226    6.9862 C   0  0  0  0  0  0  0  0  0  0  0  0
   -2.4769   -6.7597    8.2193 N   0  3  0  0  0  0  0  0  0  0  0  0
   -1.7992   -8.0416    7.9814 C   0  0  0  0  0  0  0  0  0  0  0  0
   -1.1036   -8.4947    9.2675 C   0  0  0  0  0  0  0  0  0  0  0  0
   -2.0714   -8.5987   10.3155 O   0  0  0  0  0  0  0  0  0  0  0  0
   -2.7761   -7.3800   10.5689 C   0  0  0  0  0  0  0  0  0  0  0  0
   -3.4747   -6.9248    9.2852 C   0  0  0  0  0  0  0  0  0  0  0  0
    1.0039    1.9031    0.0027 H   0  0  0  0  0  0  0  0  0  0  0  0
   -0.5459    1.8868   -0.8726 H   0  0  0  0  0  0  0  0  0  0  0  0
   -0.5289    1.8773    0.9072 H   0  0  0  0  0  0  0  0  0  0  0  0
    0.5123   -0.3556   -0.8948 H   0  0  0  0  0  0  0  0  0  0  0  0
    0.5293   -0.3651    0.8851 H   0  0  0  0  0  0  0  0  0  0  0  0
   -1.9435   -0.1821    0.9097 H   0  0  0  0  0  0  0  0  0  0  0  0
   -1.9605   -0.1726   -0.8702 H   0  0  0  0  0  0  0  0  0  0  0  0
   -3.2480   -2.2520    0.9110 H   0  0  0  0  0  0  0  0  0  0  0  0
   -3.2650   -2.2424   -0.8688 H   0  0  0  0  0  0  0  0  0  0  0  0
   -3.5564   -4.5409   -0.0779 H   0  0  0  0  0  0  0  0  0  0  0  0
   -1.9574   -4.3876   -0.8447 H   0  0  0  0  0  0  0  0  0  0  0  0
    1.9346   -5.4658    3.5033 H   0  0  0  0  0  0  0  0  0  0  0  0
    3.2512   -4.8879    1.5029 H   0  0  0  0  0  0  0  0  0  0  0  0
    4.2001   -4.4766    0.0481 H   0  0  0  0  0  0  0  0  0  0  0  0
    5.5081   -3.8986   -1.9526 H   0  0  0  0  0  0  0  0  0  0  0  0
    1.9070   -2.9958   -4.0633 H   0  0  0  0  0  0  0  0  0  0  0  0
    0.5848   -3.5815   -2.0740 H   0  0  0  0  0  0  0  0  0  0  0  0
   -3.7284   -5.5321    4.6518 H   0  0  0  0  0  0  0  0  0  0  0  0
   -1.5184   -6.9343    5.7132 H   0  0  0  0  0  0  0  0  0  0  0  0
   -1.4266   -5.2437    6.2627 H   0  0  0  0  0  0  0  0  0  0  0  0
   -3.7213   -5.4191    7.1859 H   0  0  0  0  0  0  0  0  0  0  0  0
   -3.8131   -7.1097    6.6364 H   0  0  0  0  0  0  0  0  0  0  0  0
   -2.5324   -8.7903    7.6813 H   0  0  0  0  0  0  0  0  0  0  0  0
   -1.0587   -7.9202    7.1909 H   0  0  0  0  0  0  0  0  0  0  0  0
   -0.6364   -9.4661    9.1057 H   0  0  0  0  0  0  0  0  0  0  0  0
   -0.3425   -7.7658    9.5459 H   0  0  0  0  0  0  0  0  0  0  0  0
   -3.5192   -7.5447   11.3490 H   0  0  0  0  0  0  0  0  0  0  0  0
   -2.0722   -6.6130   10.8918 H   0  0  0  0  0  0  0  0  0  0  0  0
   -3.9780   -5.9744    9.4626 H   0  0  0  0  0  0  0  0  0  0  0  0
   -4.2073   -7.6739    8.9847 H   0  0  0  0  0  0  0  0  0  0  0  0
   -1.7984   -6.0669    8.4980 H   0  0  0  0  0  0  0  0  0  0  0  0
  1  2  1  0  0  0  0
  1 34  1  0  0  0  0
  1 35  1  0  0  0  0
  1 36  1  0  0  0  0
  2  3  1  0  0  0  0
  2 37  1  0  0  0  0
  2 38  1  0  0  0  0
  3  4  1  0  0  0  0
  3 39  1  0  0  0  0
  3 40  1  0  0  0  0
  4  5  1  0  0  0  0
  5  6  1  0  0  0  0
  5 41  1  0  0  0  0
  5 42  1  0  0  0  0
  6  7  1  0  0  0  0
  6 43  1  0  0  0  0
  6 44  1  0  0  0  0
  7 23  1  0  0  0  0
  7  8  1  0  0  0  0
  8 13  2  0  0  0  0
  8  9  1  0  0  0  0
  9 10  2  0  0  0  0
  9 21  1  0  0  0  0
 10 11  1  0  0  0  0
 10 45  1  0  0  0  0
 11 12  2  0  0  0  0
 11 46  1  0  0  0  0
 12 13  1  0  0  0  0
 12 14  1  0  0  0  0
 14 19  2  0  0  0  0
 14 15  1  0  0  0  0
 15 16  2  0  0  0  0
 15 47  1  0  0  0  0
 16 17  1  0  0  0  0
 16 48  1  0  0  0  0
 17 18  2  0  0  0  0
 17 20  1  0  0  0  0
 18 19  1  0  0  0  0
 18 49  1  0  0  0  0
 19 50  1  0  0  0  0
 21 22  2  0  0  0  0
 22 23  1  0  0  0  0
 22 25  1  0  0  0  0
 23 24  2  0  0  0  0
 25 26  1  0  0  0  0
 25 51  1  0  0  0  0
 26 27  1  0  0  0  0
 26 52  1  0  0  0  0
 26 53  1  0  0  0  0
 27 28  1  0  0  0  0
 27 54  1  0  0  0  0
 27 55  1  0  0  0  0
 28 33  1  0  0  0  0
 28 29  1  0  0  0  0
 28 64  1  0  0  0  0
 29 30  1  0  0  0  0
 29 56  1  0  0  0  0
 29 57  1  0  0  0  0
 30 31  1  0  0  0  0
 30 58  1  0  0  0  0
 30 59  1  0  0  0  0
 31 32  1  0  0  0  0
 32 33  1  0  0  0  0
 32 60  1  0  0  0  0
 32 61  1  0  0  0  0
 33 62  1  0  0  0  0
 33 63  1  0  0  0  0
M  CHG  1  28   1
M  END
$$$$
CHEMBL585918
  -OEChem-07121202283D

 70 73  0     0  0  0  0  0  0999 V2000
   -0.0187    1.5258    0.0104 C   0  0  0  0  0  0  0  0  0  0  0  0
    0.0021   -0.0041    0.0020 C   0  0  0  0  0  0  0  0  0  0  0  0
    0.7182   -0.4975   -1.2568 C   0  0  0  0  0  0  0  0  0  0  0  0
    0.7376   -1.9263   -1.2646 O   0  0  0  0  0  0  0  0  0  0  0  0
    1.3873   -2.4925   -2.4045 C   0  0  0  0  0  0  0  0  0  0  0  0
    1.3486   -4.0190   -2.3077 C   0  0  0  0  0  0  0  0  0  0  0  0
   -0.0404   -4.4782   -2.3855 N   0  0  0  0  0  0  0  0  0  0  0  0
   -0.7985   -4.6151   -1.2416 C   0  0  0  0  0  0  0  0  0  0  0  0
   -0.2676   -4.3226    0.0096 C   0  0  0  0  0  0  0  0  0  0  0  0
   -1.0732   -4.4766    1.1322 C   0  0  0  0  0  0  0  0  0  0  0  0
   -2.3312   -4.8964    1.0220 N   0  0  0  0  0  0  0  0  0  0  0  0
   -2.8751   -5.1844   -0.1385 C   0  0  0  0  0  0  0  0  0  0  0  0
   -2.1345   -5.0568   -1.3218 C   0  0  0  0  0  0  0  0  0  0  0  0
   -2.6890   -5.3508   -2.5140 N   0  0  0  0  0  0  0  0  0  0  0  0
   -2.0015   -5.2333   -3.6220 C   0  0  0  0  0  0  0  0  0  0  0  0
   -0.6020   -4.7693   -3.5802 C   0  0  0  0  0  0  0  0  0  0  0  0
    0.0399   -4.6535   -4.6077 O   0  0  0  0  0  0  0  0  0  0  0  0
   -2.5906   -5.5407   -4.8356 N   0  0  0  0  0  0  0  0  0  0  0  0
   -3.9821   -5.9969   -4.8797 C   0  0  0  0  0  0  0  0  0  0  0  0
   -4.3787   -6.2623   -6.3092 C   0  0  0  0  0  0  0  0  0  0  0  0
   -3.5779   -6.0875   -7.2031 O   0  0  0  0  0  0  0  0  0  0  0  0
   -5.6233   -6.6938   -6.5942 N   0  0  0  0  0  0  0  0  0  0  0  0
   -6.6130   -6.9068   -5.5268 C   0  0  0  0  0  0  0  0  0  0  0  0
   -7.9065   -6.1812   -5.9120 C   0  0  0  0  0  0  0  0  0  0  0  0
   -8.3416   -6.6306   -7.2404 N   0  3  0  0  0  0  0  0  0  0  0  0
   -7.3517   -6.2364   -8.2508 C   0  0  0  0  0  0  0  0  0  0  0  0
   -6.0325   -6.9593   -7.9821 C   0  0  0  0  0  0  0  0  0  0  0  0
   -9.6376   -6.0183   -7.5623 C   0  0  0  0  0  0  0  0  0  0  0  0
   -0.5220   -4.1688    2.4731 C   0  0  0  0  0  0  0  0  0  0  0  0
   -1.2760   -4.4203    3.6257 C   0  0  0  0  0  0  0  0  0  0  0  0
   -0.7199   -4.1169    4.8528 C   0  0  0  0  0  0  0  0  0  0  0  0
    0.5601   -3.5760    4.9035 C   0  0  0  0  0  0  0  0  0  0  0  0
    1.2467   -3.3498    3.7954 N   0  0  0  0  0  0  0  0  0  0  0  0
    0.7557   -3.6306    2.6051 C   0  0  0  0  0  0  0  0  0  0  0  0
    1.1121   -3.2757    6.1054 O   0  0  0  0  0  0  0  0  0  0  0  0
    2.4297   -2.7225    6.0941 C   0  0  0  0  0  0  0  0  0  0  0  0
    1.0039    1.9031    0.0027 H   0  0  0  0  0  0  0  0  0  0  0  0
   -0.5459    1.8868   -0.8726 H   0  0  0  0  0  0  0  0  0  0  0  0
   -0.5289    1.8773    0.9072 H   0  0  0  0  0  0  0  0  0  0  0  0
    0.5293   -0.3651    0.8851 H   0  0  0  0  0  0  0  0  0  0  0  0
   -1.0205   -0.3814    0.0098 H   0  0  0  0  0  0  0  0  0  0  0  0
    0.1910   -0.1364   -2.1398 H   0  0  0  0  0  0  0  0  0  0  0  0
    1.7408   -0.1202   -1.2645 H   0  0  0  0  0  0  0  0  0  0  0  0
    0.8740   -2.1729   -3.3114 H   0  0  0  0  0  0  0  0  0  0  0  0
    2.4238   -2.1566   -2.4361 H   0  0  0  0  0  0  0  0  0  0  0  0
    1.9203   -4.4498   -3.1297 H   0  0  0  0  0  0  0  0  0  0  0  0
    1.7828   -4.3340   -1.3589 H   0  0  0  0  0  0  0  0  0  0  0  0
    0.7526   -3.9821    0.1078 H   0  0  0  0  0  0  0  0  0  0  0  0
   -3.9000   -5.5223   -0.1812 H   0  0  0  0  0  0  0  0  0  0  0  0
   -2.0824   -5.4541   -5.6573 H   0  0  0  0  0  0  0  0  0  0  0  0
   -4.0825   -6.9136   -4.2986 H   0  0  0  0  0  0  0  0  0  0  0  0
   -4.6302   -5.2277   -4.4597 H   0  0  0  0  0  0  0  0  0  0  0  0
   -6.8099   -7.9732   -5.4174 H   0  0  0  0  0  0  0  0  0  0  0  0
   -6.2322   -6.5034   -4.5885 H   0  0  0  0  0  0  0  0  0  0  0  0
   -8.6817   -6.4072   -5.1799 H   0  0  0  0  0  0  0  0  0  0  0  0
   -7.7279   -5.1062   -5.9324 H   0  0  0  0  0  0  0  0  0  0  0  0
   -7.7182   -6.5030   -9.2421 H   0  0  0  0  0  0  0  0  0  0  0  0
   -7.1899   -5.1597   -8.2004 H   0  0  0  0  0  0  0  0  0  0  0  0
   -5.2682   -6.5907   -8.6662 H   0  0  0  0  0  0  0  0  0  0  0  0
   -6.1698   -8.0312   -8.1248 H   0  0  0  0  0  0  0  0  0  0  0  0
   -9.5372   -4.9329   -7.5599 H   0  0  0  0  0  0  0  0  0  0  0  0
   -9.9618   -6.3511   -8.5483 H   0  0  0  0  0  0  0  0  0  0  0  0
  -10.3753   -6.3166   -6.8174 H   0  0  0  0  0  0  0  0  0  0  0  0
   -2.2683   -4.8410    3.5568 H   0  0  0  0  0  0  0  0  0  0  0  0
   -1.2730   -4.2974    5.7627 H   0  0  0  0  0  0  0  0  0  0  0  0
    1.3481   -3.4370    1.7231 H   0  0  0  0  0  0  0  0  0  0  0  0
    3.1157   -3.4275    5.6246 H   0  0  0  0  0  0  0  0  0  0  0  0
    2.4269   -1.7889    5.5316 H   0  0  0  0  0  0  0  0  0  0  0  0
    2.7513   -2.5292    7.1175 H   0  0  0  0  0  0  0  0  0  0  0  0
   -8.4379   -7.6350   -7.2396 H   0  0  0  0  0  0  0  0  0  0  0  0
  1  2  1  0  0  0  0
  1 37  1  0  0  0  0
  1 38  1  0  0  0  0
  1 39  1  0  0  0  0
  2  3  1  0  0  0  0
  2 40  1  0  0  0  0
  2 41  1  0  0  0  0
  3  4  1  0  0  0  0
  3 42  1  0  0  0  0
  3 43  1  0  0  0  0
  4  5  1  0  0  0  0
  5  6  1  0  0  0  0
  5 44  1  0  0  0  0
  5 45  1  0  0  0  0
  6  7  1  0  0  0  0
  6 46  1  0  0  0  0
  6 47  1  0  0  0  0
  7 16  1  0  0  0  0
  7  8  1  0  0  0  0
  8 13  2  0  0  0  0
  8  9  1  0  0  0  0
  9 10  2  0  0  0  0
  9 48  1  0  0  0  0
 10 11  1  0  0  0  0
 10 29  1  0  0  0  0
 11 12  2  0  0  0  0
 12 13  1  0  0  0  0
 12 49  1  0  0  0  0
 13 14  1  0  0  0  0
 14 15  2  0  0  0  0
 15 16  1  0  0  0  0
 15 18  1  0  0  0  0
 16 17  2  0  0  0  0
 18 19  1  0  0  0  0
 18 50  1  0  0  0  0
 19 20  1  0  0  0  0
 19 51  1  0  0  0  0
 19 52  1  0  0  0  0
 20 21  2  0  0  0  0
 20 22  1  0  0  0  0
 22 27  1  0  0  0  0
 22 23  1  0  0  0  0
 23 24  1  0  0  0  0
 23 53  1  0  0  0  0
 23 54  1  0  0  0  0
 24 25  1  0  0  0  0
 24 55  1  0  0  0  0
 24 56  1  0  0  0  0
 25 26  1  0  0  0  0
 25 28  1  0  0  0  0
 25 70  1  0  0  0  0
 26 27  1  0  0  0  0
 26 57  1  0  0  0  0
 26 58  1  0  0  0  0
 27 59  1  0  0  0  0
 27 60  1  0  0  0  0
 28 61  1  0  0  0  0
 28 62  1  0  0  0  0
 28 63  1  0  0  0  0
 29 34  2  0  0  0  0
 29 30  1  0  0  0  0
 30 31  2  0  0  0  0
 30 64  1  0  0  0  0
 31 32  1  0  0  0  0
 31 65  1  0  0  0  0
 32 33  2  0  0  0  0
 32 35  1  0  0  0  0
 33 34  1  0  0  0  0
 34 66  1  0  0  0  0
 35 36  1  0  0  0  0
 36 67  1  0  0  0  0
 36 68  1  0  0  0  0
 36 69  1  0  0  0  0
M  CHG  1  25   1
M  END
$$$$
CHEMBL585918
  -OEChem-07121202283D

 69 72  0     0  0  0  0  0  0999 V2000
   -0.0187    1.5258    0.0104 C   0  0  0  0  0  0  0  0  0  0  0  0
    0.0021   -0.0041    0.0020 C   0  0  0  0  0  0  0  0  0  0  0  0
    0.7182   -0.4975   -1.2568 C   0  0  0  0  0  0  0  0  0  0  0  0
    0.7376   -1.9263   -1.2646 O   0  0  0  0  0  0  0  0  0  0  0  0
    1.3873   -2.4925   -2.4045 C   0  0  0  0  0  0  0  0  0  0  0  0
    1.3486   -4.0190   -2.3077 C   0  0  0  0  0  0  0  0  0  0  0  0
   -0.0404   -4.4782   -2.3855 N   0  0  0  0  0  0  0  0  0  0  0  0
   -0.7985   -4.6151   -1.2416 C   0  0  0  0  0  0  0  0  0  0  0  0
   -0.2676   -4.3226    0.0096 C   0  0  0  0  0  0  0  0  0  0  0  0
   -1.0732   -4.4766    1.1322 C   0  0  0  0  0  0  0  0  0  0  0  0
   -2.3312   -4.8964    1.0220 N   0  0  0  0  0  0  0  0  0  0  0  0
   -2.8751   -5.1844   -0.1385 C   0  0  0  0  0  0  0  0  0  0  0  0
   -2.1345   -5.0568   -1.3218 C   0  0  0  0  0  0  0  0  0  0  0  0
   -2.6890   -5.3508   -2.5140 N   0  0  0  0  0  0  0  0  0  0  0  0
   -2.0015   -5.2333   -3.6220 C   0  0  0  0  0  0  0  0  0  0  0  0
   -0.6020   -4.7693   -3.5802 C   0  0  0  0  0  0  0  0  0  0  0  0
    0.0399   -4.6535   -4.6077 O   0  0  0  0  0  0  0  0  0  0  0  0
   -2.5906   -5.5407   -4.8356 N   0  0  0  0  0  0  0  0  0  0  0  0
   -3.9821   -5.9969   -4.8797 C   0  0  0  0  0  0  0  0  0  0  0  0
   -4.3787   -6.2623   -6.3092 C   0  0  0  0  0  0  0  0  0  0  0  0
   -3.5779   -6.0875   -7.2031 O   0  0  0  0  0  0  0  0  0  0  0  0
   -5.6233   -6.6938   -6.5942 N   0  0  0  0  0  0  0  0  0  0  0  0
   -6.6117   -6.9064   -5.5260 C   0  0  0  0  0  0  0  0  0  0  0  0
   -7.8999   -6.1656   -5.9003 C   0  0  0  0  0  0  0  0  0  0  0  0
   -8.3321   -6.5874   -7.2394 N   0  0  0  0  0  0  0  0  0  0  0  0
   -7.3402   -6.2216   -8.2593 C   0  0  0  0  0  0  0  0  0  0  0  0
   -6.0310   -6.9588   -7.9823 C   0  0  0  0  0  0  0  0  0  0  0  0
   -9.6523   -6.0319   -7.5658 C   0  0  0  0  0  0  0  0  0  0  0  0
   -0.5220   -4.1688    2.4731 C   0  0  0  0  0  0  0  0  0  0  0  0
   -1.2760   -4.4203    3.6257 C   0  0  0  0  0  0  0  0  0  0  0  0
   -0.7199   -4.1169    4.8528 C   0  0  0  0  0  0  0  0  0  0  0  0
    0.5601   -3.5760    4.9035 C   0  0  0  0  0  0  0  0  0  0  0  0
    1.2467   -3.3498    3.7954 N   0  0  0  0  0  0  0  0  0  0  0  0
    0.7557   -3.6306    2.6051 C   0  0  0  0  0  0  0  0  0  0  0  0
    1.1121   -3.2757    6.1054 O   0  0  0  0  0  0  0  0  0  0  0  0
    2.4297   -2.7225    6.0941 C   0  0  0  0  0  0  0  0  0  0  0  0
    1.0039    1.9031    0.0027 H   0  0  0  0  0  0  0  0  0  0  0  0
   -0.5459    1.8868   -0.8726 H   0  0  0  0  0  0  0  0  0  0  0  0
   -0.5289    1.8773    0.9072 H   0  0  0  0  0  0  0  0  0  0  0  0
    0.5293   -0.3651    0.8851 H   0  0  0  0  0  0  0  0  0  0  0  0
   -1.0205   -0.3814    0.0098 H   0  0  0  0  0  0  0  0  0  0  0  0
    0.1910   -0.1364   -2.1398 H   0  0  0  0  0  0  0  0  0  0  0  0
    1.7408   -0.1202   -1.2645 H   0  0  0  0  0  0  0  0  0  0  0  0
    0.8740   -2.1729   -3.3114 H   0  0  0  0  0  0  0  0  0  0  0  0
    2.4238   -2.1566   -2.4361 H   0  0  0  0  0  0  0  0  0  0  0  0
    1.9203   -4.4498   -3.1297 H   0  0  0  0  0  0  0  0  0  0  0  0
    1.7828   -4.3340   -1.3589 H   0  0  0  0  0  0  0  0  0  0  0  0
    0.7526   -3.9821    0.1078 H   0  0  0  0  0  0  0  0  0  0  0  0
   -3.9000   -5.5223   -0.1812 H   0  0  0  0  0  0  0  0  0  0  0  0
   -2.0824   -5.4541   -5.6573 H   0  0  0  0  0  0  0  0  0  0  0  0
   -4.0825   -6.9136   -4.2986 H   0  0  0  0  0  0  0  0  0  0  0  0
   -4.6302   -5.2277   -4.4597 H   0  0  0  0  0  0  0  0  0  0  0  0
   -6.8182   -7.9718   -5.4249 H   0  0  0  0  0  0  0  0  0  0  0  0
   -6.2242   -6.5148   -4.5854 H   0  0  0  0  0  0  0  0  0  0  0  0
   -8.6789   -6.4017   -5.1754 H   0  0  0  0  0  0  0  0  0  0  0  0
   -7.7151   -5.0913   -5.8993 H   0  0  0  0  0  0  0  0  0  0  0  0
   -7.7134   -6.4983   -9.2453 H   0  0  0  0  0  0  0  0  0  0  0  0
   -7.1632   -5.1466   -8.2255 H   0  0  0  0  0  0  0  0  0  0  0  0
   -5.2598   -6.6019   -8.6649 H   0  0  0  0  0  0  0  0  0  0  0  0
   -6.1806   -8.0294   -8.1219 H   0  0  0  0  0  0  0  0  0  0  0  0
   -9.6047   -4.9432   -7.5407 H   0  0  0  0  0  0  0  0  0  0  0  0
   -9.9481   -6.3598   -8.5623 H   0  0  0  0  0  0  0  0  0  0  0  0
  -10.3835   -6.3805   -6.8365 H   0  0  0  0  0  0  0  0  0  0  0  0
   -2.2683   -4.8410    3.5568 H   0  0  0  0  0  0  0  0  0  0  0  0
   -1.2730   -4.2974    5.7627 H   0  0  0  0  0  0  0  0  0  0  0  0
    1.3481   -3.4370    1.7231 H   0  0  0  0  0  0  0  0  0  0  0  0
    3.1157   -3.4275    5.6246 H   0  0  0  0  0  0  0  0  0  0  0  0
    2.4269   -1.7889    5.5316 H   0  0  0  0  0  0  0  0  0  0  0  0
    2.7513   -2.5292    7.1175 H   0  0  0  0  0  0  0  0  0  0  0  0
  1  2  1  0  0  0  0
  1 37  1  0  0  0  0
  1 38  1  0  0  0  0
  1 39  1  0  0  0  0
  2  3  1  0  0  0  0
  2 40  1  0  0  0  0
  2 41  1  0  0  0  0
  3  4  1  0  0  0  0
  3 42  1  0  0  0  0
  3 43  1  0  0  0  0
  4  5  1  0  0  0  0
  5  6  1  0  0  0  0
  5 44  1  0  0  0  0
  5 45  1  0  0  0  0
  6  7  1  0  0  0  0
  6 46  1  0  0  0  0
  6 47  1  0  0  0  0
  7 16  1  0  0  0  0
  7  8  1  0  0  0  0
  8 13  2  0  0  0  0
  8  9  1  0  0  0  0
  9 10  2  0  0  0  0
  9 48  1  0  0  0  0
 10 11  1  0  0  0  0
 10 29  1  0  0  0  0
 11 12  2  0  0  0  0
 12 13  1  0  0  0  0
 12 49  1  0  0  0  0
 13 14  1  0  0  0  0
 14 15  2  0  0  0  0
 15 16  1  0  0  0  0
 15 18  1  0  0  0  0
 16 17  2  0  0  0  0
 18 19  1  0  0  0  0
 18 50  1  0  0  0  0
 19 20  1  0  0  0  0
 19 51  1  0  0  0  0
 19 52  1  0  0  0  0
 20 21  2  0  0  0  0
 20 22  1  0  0  0  0
 22 27  1  0  0  0  0
 22 23  1  0  0  0  0
 23 24  1  0  0  0  0
 23 53  1  0  0  0  0
 23 54  1  0  0  0  0
 24 25  1  0  0  0  0
 24 55  1  0  0  0  0
 24 56  1  0  0  0  0
 25 26  1  0  0  0  0
 25 28  1  0  0  0  0
 26 27  1  0  0  0  0
 26 57  1  0  0  0  0
 26 58  1  0  0  0  0
 27 59  1  0  0  0  0
 27 60  1  0  0  0  0
 28 61  1  0  0  0  0
 28 62  1  0  0  0  0
 28 63  1  0  0  0  0
 29 34  2  0  0  0  0
 29 30  1  0  0  0  0
 30 31  2  0  0  0  0
 30 64  1  0  0  0  0
 31 32  1  0  0  0  0
 31 65  1  0  0  0  0
 32 33  2  0  0  0  0
 32 35  1  0  0  0  0
 33 34  1  0  0  0  0
 34 66  1  0  0  0  0
 35 36  1  0  0  0  0
 36 67  1  0  0  0  0
 36 68  1  0  0  0  0
 36 69  1  0  0  0  0
M  END
$$$$
CHEMBL247285
  -OEChem-07121202283D

 63 67  0     0  0  0  0  0  0999 V2000
   -0.0178    1.4608    0.0101 C   0  0  0  0  0  0  0  0  0  0  0  0
    0.0021   -0.0041    0.0020 N   0  0  0  0  0  0  0  0  0  0  0  0
    0.0054   -0.6621   -1.1759 C   0  0  0  0  0  0  0  0  0  0  0  0
   -0.0076   -0.0455   -2.2262 O   0  0  0  0  0  0  0  0  0  0  0  0
    0.0246   -2.0735   -1.1768 C   0  0  0  0  0  0  0  0  0  0  0  0
    0.0396   -2.7510    0.0359 C   0  0  0  0  0  0  0  0  0  0  0  0
    0.0560   -4.0574   -0.2407 N   0  0  0  0  0  0  0  0  0  0  0  0
    0.0523   -4.2363   -1.5371 C   0  0  0  0  0  0  0  0  0  0  0  0
    0.0331   -3.0421   -2.1605 N   0  0  0  0  0  0  0  0  0  0  0  0
    0.0259   -2.8914   -3.1187 H   0  0  0  0  0  0  0  0  0  0  0  0
    0.0679   -5.5755   -2.2280 C   0  0  0  0  0  0  0  0  0  0  0  0
    1.2454   -6.3791   -1.7393 C   0  0  0  0  0  0  0  0  0  0  0  0
    2.4222   -6.3744   -2.4251 C   0  0  0  0  0  0  0  0  0  0  0  0
    3.4729   -7.0725   -2.0168 N   0  0  0  0  0  0  0  0  0  0  0  0
    3.4568   -7.8124   -0.9322 C   0  0  0  0  0  0  0  0  0  0  0  0
    2.2922   -7.8864   -0.1529 C   0  0  0  0  0  0  0  0  0  0  0  0
    1.1527   -7.1446   -0.5627 C   0  0  0  0  0  0  0  0  0  0  0  0
   -0.0214   -7.1972    0.2016 C   0  0  0  0  0  0  0  0  0  0  0  0
   -0.0531   -7.9581    1.3351 C   0  0  0  0  0  0  0  0  0  0  0  0
    1.0744   -8.6871    1.7445 C   0  0  0  0  0  0  0  0  0  0  0  0
    2.2269   -8.6644    1.0144 C   0  0  0  0  0  0  0  0  0  0  0  0
    1.0134   -9.4355    2.8776 O   0  0  0  0  0  0  0  0  0  0  0  0
    2.1922  -10.1555    3.2438 C   0  0  0  0  0  0  0  0  0  0  0  0
   -1.1906   -8.0098    2.0766 O   0  0  0  0  0  0  0  0  0  0  0  0
   -2.3046   -7.2463    1.6096 C   0  0  0  0  0  0  0  0  0  0  0  0
    0.0352   -2.0179    1.2116 N   0  0  0  0  0  0  0  0  0  0  0  0
    0.0222   -0.6723    1.1682 C   0  0  0  0  0  0  0  0  0  0  0  0
    0.0236   -0.0457    2.2103 O   0  0  0  0  0  0  0  0  0  0  0  0
    0.0502   -2.7079    2.5038 C   0  0  0  0  0  0  0  0  0  0  0  0
    1.4978   -2.9289    2.9471 C   0  0  0  0  0  0  0  0  0  0  0  0
    2.1901   -3.8824    1.9711 C   0  0  0  0  0  0  0  0  0  0  0  0
    3.6377   -4.1034    2.4144 C   0  0  0  0  0  0  0  0  0  0  0  0
    3.6540   -4.7107    3.8187 C   0  0  0  0  0  0  0  0  0  0  0  0
    2.9617   -3.7572    4.7947 C   0  0  0  0  0  0  0  0  0  0  0  0
    1.5141   -3.5362    4.3514 C   0  0  0  0  0  0  0  0  0  0  0  0
    1.0048    1.8381    0.0023 H   0  0  0  0  0  0  0  0  0  0  0  0
   -0.5450    1.8219   -0.8730 H   0  0  0  0  0  0  0  0  0  0  0  0
   -0.5280    1.8123    0.9069 H   0  0  0  0  0  0  0  0  0  0  0  0
   -0.8550   -6.1105   -2.0045 H   0  0  0  0  0  0  0  0  0  0  0  0
    0.1507   -5.4278   -3.3048 H   0  0  0  0  0  0  0  0  0  0  0  0
    2.5016   -5.7857   -3.3270 H   0  0  0  0  0  0  0  0  0  0  0  0
    4.3385   -8.3636   -0.6404 H   0  0  0  0  0  0  0  0  0  0  0  0
   -0.8945   -6.6397   -0.1038 H   0  0  0  0  0  0  0  0  0  0  0  0
    3.0875   -9.2301    1.3395 H   0  0  0  0  0  0  0  0  0  0  0  0
    3.0124   -9.4547    3.3994 H   0  0  0  0  0  0  0  0  0  0  0  0
    2.0083  -10.7097    4.1641 H   0  0  0  0  0  0  0  0  0  0  0  0
    2.4551  -10.8513    2.4470 H   0  0  0  0  0  0  0  0  0  0  0  0
   -3.1452   -7.3759    2.2914 H   0  0  0  0  0  0  0  0  0  0  0  0
   -2.0304   -6.1922    1.5671 H   0  0  0  0  0  0  0  0  0  0  0  0
   -2.5880   -7.5885    0.6143 H   0  0  0  0  0  0  0  0  0  0  0  0
   -0.4683   -2.1008    3.2459 H   0  0  0  0  0  0  0  0  0  0  0  0
   -0.4513   -3.6708    2.4074 H   0  0  0  0  0  0  0  0  0  0  0  0
    2.0243   -1.9746    2.9578 H   0  0  0  0  0  0  0  0  0  0  0  0
    1.6636   -4.8367    1.9604 H   0  0  0  0  0  0  0  0  0  0  0  0
    2.1785   -3.4498    0.9707 H   0  0  0  0  0  0  0  0  0  0  0  0
    4.1309   -4.7827    1.7191 H   0  0  0  0  0  0  0  0  0  0  0  0
    4.1642   -3.1491    2.4251 H   0  0  0  0  0  0  0  0  0  0  0  0
    3.1275   -5.6650    3.8080 H   0  0  0  0  0  0  0  0  0  0  0  0
    4.6853   -4.8681    4.1345 H   0  0  0  0  0  0  0  0  0  0  0  0
    2.9733   -4.1898    5.7951 H   0  0  0  0  0  0  0  0  0  0  0  0
    3.4882   -2.8029    4.8054 H   0  0  0  0  0  0  0  0  0  0  0  0
    1.0209   -2.8569    5.0467 H   0  0  0  0  0  0  0  0  0  0  0  0
    0.9876   -4.4905    4.3407 H   0  0  0  0  0  0  0  0  0  0  0  0
  1  2  1  0  0  0  0
  1 36  1  0  0  0  0
  1 37  1  0  0  0  0
  1 38  1  0  0  0  0
  2 27  1  0  0  0  0
  2  3  1  0  0  0  0
  3  4  2  0  0  0  0
  3  5  1  0  0  0  0
  5  9  1  0  0  0  0
  5  6  2  0  0  0  0
  6  7  1  0  0  0  0
  6 26  1  0  0  0  0
  7  8  2  0  0  0  0
  8  9  1  0  0  0  0
  8 11  1  0  0  0  0
  9 10  1  0  0  0  0
 11 12  1  0  0  0  0
 11 39  1  0  0  0  0
 11 40  1  0  0  0  0
 12 17  2  0  0  0  0
 12 13  1  0  0  0  0
 13 14  2  0  0  0  0
 13 41  1  0  0  0  0
 14 15  1  0  0  0  0
 15 16  2  0  0  0  0
 15 42  1  0  0  0  0
 16 21  1  0  0  0  0
 16 17  1  0  0  0  0
 17 18  1  0  0  0  0
 18 19  2  0  0  0  0
 18 43  1  0  0  0  0
 19 20  1  0  0  0  0
 19 24  1  0  0  0  0
 20 21  2  0  0  0  0
 20 22  1  0  0  0  0
 21 44  1  0  0  0  0
 22 23  1  0  0  0  0
 23 45  1  0  0  0  0
 23 46  1  0  0  0  0
 23 47  1  0  0  0  0
 24 25  1  0  0  0  0
 25 48  1  0  0  0  0
 25 49  1  0  0  0  0
 25 50  1  0  0  0  0
 26 27  1  0  0  0  0
 26 29  1  0  0  0  0
 27 28  2  0  0  0  0
 29 30  1  0  0  0  0
 29 51  1  0  0  0  0
 29 52  1  0  0  0  0
 30 35  1  0  0  0  0
 30 31  1  0  0  0  0
 30 53  1  0  0  0  0
 31 32  1  0  0  0  0
 31 54  1  0  0  0  0
 31 55  1  0  0  0  0
 32 33  1  0  0  0  0
 32 56  1  0  0  0  0
 32 57  1  0  0  0  0
 33 34  1  0  0  0  0
 33 58  1  0  0  0  0
 33 59  1  0  0  0  0
 34 35  1  0  0  0  0
 34 60  1  0  0  0  0
 34 61  1  0  0  0  0
 35 62  1  0  0  0  0
 35 63  1  0  0  0  0
M  END
$$$$
CHEMBL247285
  -OEChem-07121202283D

 64 68  0     0  0  0  0  0  0999 V2000
   -0.0178    1.4608    0.0101 C   0  0  0  0  0  0  0  0  0  0  0  0
    0.0021   -0.0041    0.0020 N   0  0  0  0  0  0  0  0  0  0  0  0
    0.0054   -0.6621   -1.1759 C   0  0  0  0  0  0  0  0  0  0  0  0
   -0.0076   -0.0455   -2.2262 O   0  0  0  0  0  0  0  0  0  0  0  0
    0.0246   -2.0735   -1.1768 C   0  0  0  0  0  0  0  0  0  0  0  0
    0.0396   -2.7510    0.0359 C   0  0  0  0  0  0  0  0  0  0  0  0
    0.0560   -4.0574   -0.2407 N   0  0  0  0  0  0  0  0  0  0  0  0
    0.0523   -4.2363   -1.5371 C   0  0  0  0  0  0  0  0  0  0  0  0
    0.0331   -3.0421   -2.1605 N   0  0  0  0  0  0  0  0  0  0  0  0
    0.0259   -2.8914   -3.1187 H   0  0  0  0  0  0  0  0  0  0  0  0
    0.0679   -5.5755   -2.2280 C   0  0  0  0  0  0  0  0  0  0  0  0
    1.2454   -6.3791   -1.7393 C   0  0  0  0  0  0  0  0  0  0  0  0
    2.4222   -6.3744   -2.4251 C   0  0  0  0  0  0  0  0  0  0  0  0
    3.4729   -7.0725   -2.0168 N   0  3  0  0  0  0  0  0  0  0  0  0
    3.4567   -7.8128   -0.9324 C   0  0  0  0  0  0  0  0  0  0  0  0
    2.2921   -7.8868   -0.1531 C   0  0  0  0  0  0  0  0  0  0  0  0
    1.1527   -7.1446   -0.5627 C   0  0  0  0  0  0  0  0  0  0  0  0
   -0.0214   -7.1972    0.2016 C   0  0  0  0  0  0  0  0  0  0  0  0
   -0.0531   -7.9581    1.3351 C   0  0  0  0  0  0  0  0  0  0  0  0
    1.0744   -8.6871    1.7445 C   0  0  0  0  0  0  0  0  0  0  0  0
    2.2267   -8.6651    1.0139 C   0  0  0  0  0  0  0  0  0  0  0  0
    1.0134   -9.4355    2.8776 O   0  0  0  0  0  0  0  0  0  0  0  0
    2.1922  -10.1555    3.2438 C   0  0  0  0  0  0  0  0  0  0  0  0
   -1.1906   -8.0098    2.0766 O   0  0  0  0  0  0  0  0  0  0  0  0
   -2.3046   -7.2463    1.6096 C   0  0  0  0  0  0  0  0  0  0  0  0
    0.0352   -2.0179    1.2116 N   0  0  0  0  0  0  0  0  0  0  0  0
    0.0222   -0.6723    1.1682 C   0  0  0  0  0  0  0  0  0  0  0  0
    0.0236   -0.0457    2.2103 O   0  0  0  0  0  0  0  0  0  0  0  0
    0.0502   -2.7079    2.5038 C   0  0  0  0  0  0  0  0  0  0  0  0
    1.4978   -2.9289    2.9471 C   0  0  0  0  0  0  0  0  0  0  0  0
    2.1901   -3.8824    1.9711 C   0  0  0  0  0  0  0  0  0  0  0  0
    3.6377   -4.1034    2.4144 C   0  0  0  0  0  0  0  0  0  0  0  0
    3.6540   -4.7107    3.8187 C   0  0  0  0  0  0  0  0  0  0  0  0
    2.9617   -3.7572    4.7947 C   0  0  0  0  0  0  0  0  0  0  0  0
    1.5141   -3.5362    4.3514 C   0  0  0  0  0  0  0  0  0  0  0  0
    1.0048    1.8381    0.0023 H   0  0  0  0  0  0  0  0  0  0  0  0
   -0.5450    1.8219   -0.8730 H   0  0  0  0  0  0  0  0  0  0  0  0
   -0.5280    1.8123    0.9069 H   0  0  0  0  0  0  0  0  0  0  0  0
   -0.8550   -6.1105   -2.0045 H   0  0  0  0  0  0  0  0  0  0  0  0
    0.1507   -5.4278   -3.3048 H   0  0  0  0  0  0  0  0  0  0  0  0
    2.5016   -5.7857   -3.3270 H   0  0  0  0  0  0  0  0  0  0  0  0
    4.3383   -8.3643   -0.6409 H   0  0  0  0  0  0  0  0  0  0  0  0
   -0.8945   -6.6397   -0.1038 H   0  0  0  0  0  0  0  0  0  0  0  0
    3.0872   -9.2311    1.3388 H   0  0  0  0  0  0  0  0  0  0  0  0
    2.4551  -10.8513    2.4470 H   0  0  0  0  0  0  0  0  0  0  0  0
    3.0124   -9.4547    3.3994 H   0  0  0  0  0  0  0  0  0  0  0  0
    2.0083  -10.7097    4.1641 H   0  0  0  0  0  0  0  0  0  0  0  0
   -3.1452   -7.3759    2.2914 H   0  0  0  0  0  0  0  0  0  0  0  0
   -2.0304   -6.1922    1.5671 H   0  0  0  0  0  0  0  0  0  0  0  0
   -2.5880   -7.5885    0.6143 H   0  0  0  0  0  0  0  0  0  0  0  0
   -0.4683   -2.1008    3.2459 H   0  0  0  0  0  0  0  0  0  0  0  0
   -0.4513   -3.6708    2.4074 H   0  0  0  0  0  0  0  0  0  0  0  0
    2.0243   -1.9746    2.9578 H   0  0  0  0  0  0  0  0  0  0  0  0
    1.6636   -4.8367    1.9604 H   0  0  0  0  0  0  0  0  0  0  0  0
    2.1785   -3.4498    0.9707 H   0  0  0  0  0  0  0  0  0  0  0  0
    4.1309   -4.7827    1.7191 H   0  0  0  0  0  0  0  0  0  0  0  0
    4.1642   -3.1491    2.4251 H   0  0  0  0  0  0  0  0  0  0  0  0
    3.1275   -5.6650    3.8080 H   0  0  0  0  0  0  0  0  0  0  0  0
    4.6853   -4.8681    4.1345 H   0  0  0  0  0  0  0  0  0  0  0  0
    2.9733   -4.1898    5.7951 H   0  0  0  0  0  0  0  0  0  0  0  0
    3.4882   -2.8029    4.8054 H   0  0  0  0  0  0  0  0  0  0  0  0
    1.0209   -2.8569    5.0467 H   0  0  0  0  0  0  0  0  0  0  0  0
    0.9876   -4.4905    4.3407 H   0  0  0  0  0  0  0  0  0  0  0  0
    4.2879   -7.0349   -2.5415 H   0  0  0  0  0  0  0  0  0  0  0  0
  1  2  1  0  0  0  0
  1 36  1  0  0  0  0
  1 37  1  0  0  0  0
  1 38  1  0  0  0  0
  2 27  1  0  0  0  0
  2  3  1  0  0  0  0
  3  4  2  0  0  0  0
  3  5  1  0  0  0  0
  5  9  1  0  0  0  0
  5  6  2  0  0  0  0
  6  7  1  0  0  0  0
  6 26  1  0  0  0  0
  7  8  2  0  0  0  0
  8  9  1  0  0  0  0
  8 11  1  0  0  0  0
  9 10  1  0  0  0  0
 11 12  1  0  0  0  0
 11 39  1  0  0  0  0
 11 40  1  0  0  0  0
 12 17  2  0  0  0  0
 12 13  1  0  0  0  0
 13 14  2  0  0  0  0
 13 41  1  0  0  0  0
 14 15  1  0  0  0  0
 14 64  1  0  0  0  0
 15 16  2  0  0  0  0
 15 42  1  0  0  0  0
 16 21  1  0  0  0  0
 16 17  1  0  0  0  0
 17 18  1  0  0  0  0
 18 19  2  0  0  0  0
 18 43  1  0  0  0  0
 19 20  1  0  0  0  0
 19 24  1  0  0  0  0
 20 21  2  0  0  0  0
 20 22  1  0  0  0  0
 21 44  1  0  0  0  0
 22 23  1  0  0  0  0
 23 45  1  0  0  0  0
 23 46  1  0  0  0  0
 23 47  1  0  0  0  0
 24 25  1  0  0  0  0
 25 48  1  0  0  0  0
 25 49  1  0  0  0  0
 25 50  1  0  0  0  0
 26 27  1  0  0  0  0
 26 29  1  0  0  0  0
 27 28  2  0  0  0  0
 29 30  1  0  0  0  0
 29 51  1  0  0  0  0
 29 52  1  0  0  0  0
 30 35  1  0  0  0  0
 30 31  1  0  0  0  0
 30 53  1  0  0  0  0
 31 32  1  0  0  0  0
 31 54  1  0  0  0  0
 31 55  1  0  0  0  0
 32 33  1  0  0  0  0
 32 56  1  0  0  0  0
 32 57  1  0  0  0  0
 33 34  1  0  0  0  0
 33 58  1  0  0  0  0
 33 59  1  0  0  0  0
 34 35  1  0  0  0  0
 34 60  1  0  0  0  0
 34 61  1  0  0  0  0
 35 62  1  0  0  0  0
 35 63  1  0  0  0  0
M  CHG  1  14   1
M  END
$$$$
CHEMBL444157
  -OEChem-07121202283D

 78 82  0     1  0  0  0  0  0999 V2000
   -0.0187    1.5258    0.0104 C   0  0  0  0  0  0  0  0  0  0  0  0
    0.0021   -0.0041    0.0020 C   0  0  0  0  0  0  0  0  0  0  0  0
   -1.4117   -0.5257    0.0127 C   0  0  0  0  0  0  0  0  0  0  0  0
   -2.1728   -0.8099    1.1256 C   0  0  0  0  0  0  0  0  0  0  0  0
   -3.4589   -1.2827    0.5767 C   0  0  0  0  0  0  0  0  0  0  0  0
   -4.4901   -1.6666    1.5381 C   0  0  0  0  0  0  0  0  0  0  0  0
   -5.6995   -2.1120    1.1270 O   0  5  0  0  0  0  0  0  0  0  0  0
   -4.1998   -1.5638    2.8233 N   0  0  0  0  0  0  0  0  0  0  0  0
   -3.0145   -1.1278    3.2525 C   0  0  0  0  0  0  0  0  0  0  0  0
   -2.0308   -0.7623    2.4584 N   0  0  0  0  0  0  0  0  0  0  0  0
   -2.7914   -1.0505    4.7148 C   0  0  0  0  0  0  0  0  0  0  0  0
   -1.5728   -0.5963    5.2245 C   0  0  0  0  0  0  0  0  0  0  0  0
   -1.4136   -0.5425    6.5991 C   0  0  0  0  0  0  0  0  0  0  0  0
   -2.4546   -0.9359    7.4193 C   0  0  0  0  0  0  0  0  0  0  0  0
   -3.5969   -1.3615    6.9147 N   0  0  0  0  0  0  0  0  0  0  0  0
   -3.8007   -1.4260    5.6102 C   0  0  0  0  0  0  0  0  0  0  0  0
   -4.9927   -1.8638    5.1359 O   0  0  0  0  0  0  0  0  0  0  0  0
   -5.9797   -2.2314    6.1017 C   0  0  2  0  0  0  0  0  0  0  0  0
   -5.8433   -1.6369    7.0050 H   0  0  0  0  0  0  0  0  0  0  0  0
   -5.8329   -3.7160    6.4413 C   0  0  0  0  0  0  0  0  0  0  0  0
   -7.3748   -1.9750    5.5282 C   0  0  0  0  0  0  0  0  0  0  0  0
   -7.5974   -2.8395    4.4123 O   0  0  0  0  0  0  0  0  0  0  0  0
   -8.8786   -2.6798    3.7998 C   0  0  0  0  0  0  0  0  0  0  0  0
    0.1029    0.0218    7.2966 S   0  0  0  0  0  0  0  0  0  0  0  0
    0.1852   -0.5410    8.5988 O   0  0  0  0  0  0  0  0  0  0  0  0
    1.1056   -0.1871    6.3116 O   0  0  0  0  0  0  0  0  0  0  0  0
   -0.0300    1.6603    7.4967 N   0  0  0  0  0  0  0  0  0  0  0  0
    0.3698    2.5878    6.4272 C   0  0  0  0  0  0  0  0  0  0  0  0
   -0.7747    3.5786    6.1905 C   0  0  0  0  0  0  0  0  0  0  0  0
   -1.1262    4.2308    7.4583 N   0  3  0  0  0  0  0  0  0  0  0  0
   -1.6527    3.2373    8.4027 C   0  0  0  0  0  0  0  0  0  0  0  0
   -0.5569    2.2294    8.7468 C   0  0  0  0  0  0  0  0  0  0  0  0
   -2.1467    5.2584    7.2118 C   0  0  0  0  0  0  0  0  0  0  0  0
   -2.4237    6.0232    8.5077 C   0  0  0  0  0  0  0  0  0  0  0  0
   -3.3367   -1.2336   -0.7298 N   0  0  0  0  0  0  0  0  0  0  0  0
   -2.1735   -0.7971   -1.0626 N   0  0  0  0  0  0  0  0  0  0  0  0
   -1.7294   -0.6210   -2.4475 C   0  0  0  0  0  0  0  0  0  0  0  0
   -1.0854   -1.8935   -2.9342 C   0  0  0  0  0  0  0  0  0  0  0  0
   -1.5462   -2.4932   -4.0912 C   0  0  0  0  0  0  0  0  0  0  0  0
   -0.9469   -3.6636   -4.5303 C   0  0  0  0  0  0  0  0  0  0  0  0
    0.0982   -4.1894   -3.7859 C   0  0  0  0  0  0  0  0  0  0  0  0
    0.5048   -3.5341   -2.6394 C   0  0  0  0  0  0  0  0  0  0  0  0
   -0.0853   -2.4191   -2.2544 N   0  0  0  0  0  0  0  0  0  0  0  0
    1.0039    1.9031    0.0027 H   0  0  0  0  0  0  0  0  0  0  0  0
   -0.5459    1.8868   -0.8726 H   0  0  0  0  0  0  0  0  0  0  0  0
   -0.5289    1.8773    0.9072 H   0  0  0  0  0  0  0  0  0  0  0  0
    0.5123   -0.3556   -0.8948 H   0  0  0  0  0  0  0  0  0  0  0  0
    0.5293   -0.3651    0.8851 H   0  0  0  0  0  0  0  0  0  0  0  0
   -0.7743   -0.2948    4.5628 H   0  0  0  0  0  0  0  0  0  0  0  0
   -2.3305   -0.8944    8.4913 H   0  0  0  0  0  0  0  0  0  0  0  0
   -5.9693   -4.3106    5.5380 H   0  0  0  0  0  0  0  0  0  0  0  0
   -4.8391   -3.8987    6.8499 H   0  0  0  0  0  0  0  0  0  0  0  0
   -6.5858   -3.9964    7.1780 H   0  0  0  0  0  0  0  0  0  0  0  0
   -8.1245   -2.1709    6.2948 H   0  0  0  0  0  0  0  0  0  0  0  0
   -7.4493   -0.9369    5.2041 H   0  0  0  0  0  0  0  0  0  0  0  0
   -8.9693   -3.3708    2.9618 H   0  0  0  0  0  0  0  0  0  0  0  0
   -9.6594   -2.8904    4.5306 H   0  0  0  0  0  0  0  0  0  0  0  0
   -8.9842   -1.6564    3.4399 H   0  0  0  0  0  0  0  0  0  0  0  0
    1.2667    3.1292    6.7282 H   0  0  0  0  0  0  0  0  0  0  0  0
    0.5656    2.0290    5.5120 H   0  0  0  0  0  0  0  0  0  0  0  0
   -0.4595    4.3325    5.4691 H   0  0  0  0  0  0  0  0  0  0  0  0
   -1.6429    3.0454    5.8032 H   0  0  0  0  0  0  0  0  0  0  0  0
   -1.9844    3.7397    9.3113 H   0  0  0  0  0  0  0  0  0  0  0  0
   -2.4943    2.7144    7.9484 H   0  0  0  0  0  0  0  0  0  0  0  0
   -0.9735    1.4338    9.3644 H   0  0  0  0  0  0  0  0  0  0  0  0
    0.2448    2.7340    9.2860 H   0  0  0  0  0  0  0  0  0  0  0  0
   -1.7881    5.9513    6.4506 H   0  0  0  0  0  0  0  0  0  0  0  0
   -3.0650    4.7831    6.8670 H   0  0  0  0  0  0  0  0  0  0  0  0
   -1.5054    6.4984    8.8525 H   0  0  0  0  0  0  0  0  0  0  0  0
   -3.1809    6.7856    8.3248 H   0  0  0  0  0  0  0  0  0  0  0  0
   -2.7822    5.3303    9.2690 H   0  0  0  0  0  0  0  0  0  0  0  0
   -2.5872   -0.3841   -3.0768 H   0  0  0  0  0  0  0  0  0  0  0  0
   -1.0069    0.1937   -2.4965 H   0  0  0  0  0  0  0  0  0  0  0  0
   -2.3631   -2.0557   -4.6459 H   0  0  0  0  0  0  0  0  0  0  0  0
   -1.2862   -4.1544   -5.4306 H   0  0  0  0  0  0  0  0  0  0  0  0
    0.5881   -5.0999   -4.0982 H   0  0  0  0  0  0  0  0  0  0  0  0
    1.3180   -3.9371   -2.0541 H   0  0  0  0  0  0  0  0  0  0  0  0
   -0.3042    4.6642    7.8514 H   0  0  0  0  0  0  0  0  0  0  0  0
  1  2  1  0  0  0  0
  1 44  1  0  0  0  0
  1 45  1  0  0  0  0
  1 46  1  0  0  0  0
  2  3  1  0  0  0  0
  2 47  1  0  0  0  0
  2 48  1  0  0  0  0
  3 36  1  0  0  0  0
  3  4  2  0  0  0  0
  4 10  1  0  0  0  0
  4  5  1  0  0  0  0
  5  6  1  0  0  0  0
  5 35  2  0  0  0  0
  6  7  1  0  0  0  0
  6  8  2  0  0  0  0
  8  9  1  0  0  0  0
  9 10  2  0  0  0  0
  9 11  1  0  0  0  0
 11 16  2  0  0  0  0
 11 12  1  0  0  0  0
 12 13  2  0  0  0  0
 12 49  1  0  0  0  0
 13 14  1  0  0  0  0
 13 24  1  0  0  0  0
 14 15  2  0  0  0  0
 14 50  1  0  0  0  0
 15 16  1  0  0  0  0
 16 17  1  0  0  0  0
 17 18  1  0  0  0  0
 18 19  1  0  0  0  0
 18 20  1  0  0  0  0
 18 21  1  0  0  0  0
 20 51  1  0  0  0  0
 20 52  1  0  0  0  0
 20 53  1  0  0  0  0
 21 22  1  0  0  0  0
 21 54  1  0  0  0  0
 21 55  1  0  0  0  0
 22 23  1  0  0  0  0
 23 56  1  0  0  0  0
 23 57  1  0  0  0  0
 23 58  1  0  0  0  0
 24 25  2  0  0  0  0
 24 26  2  0  0  0  0
 24 27  1  0  0  0  0
 27 32  1  0  0  0  0
 27 28  1  0  0  0  0
 28 29  1  0  0  0  0
 28 59  1  0  0  0  0
 28 60  1  0  0  0  0
 29 30  1  0  0  0  0
 29 61  1  0  0  0  0
 29 62  1  0  0  0  0
 30 31  1  0  0  0  0
 30 33  1  0  0  0  0
 30 78  1  0  0  0  0
 31 32  1  0  0  0  0
 31 63  1  0  0  0  0
 31 64  1  0  0  0  0
 32 65  1  0  0  0  0
 32 66  1  0  0  0  0
 33 34  1  0  0  0  0
 33 67  1  0  0  0  0
 33 68  1  0  0  0  0
 34 69  1  0  0  0  0
 34 70  1  0  0  0  0
 34 71  1  0  0  0  0
 35 36  1  0  0  0  0
 36 37  1  0  0  0  0
 37 38  1  0  0  0  0
 37 72  1  0  0  0  0
 37 73  1  0  0  0  0
 38 43  2  0  0  0  0
 38 39  1  0  0  0  0
 39 40  2  0  0  0  0
 39 74  1  0  0  0  0
 40 41  1  0  0  0  0
 40 75  1  0  0  0  0
 41 42  2  0  0  0  0
 41 76  1  0  0  0  0
 42 43  1  0  0  0  0
 42 77  1  0  0  0  0
M  CHG  2   7  -1  30   1
M  END
$$$$
CHEMBL444157
  -OEChem-07121202283D

 77 81  0     1  0  0  0  0  0999 V2000
   -0.0187    1.5258    0.0104 C   0  0  0  0  0  0  0  0  0  0  0  0
    0.0021   -0.0041    0.0020 C   0  0  0  0  0  0  0  0  0  0  0  0
    0.7074   -0.4901   -1.2379 C   0  0  0  0  0  0  0  0  0  0  0  0
    0.1284   -0.7590   -2.4589 C   0  0  0  0  0  0  0  0  0  0  0  0
    1.2538   -1.1974   -3.3075 C   0  0  0  0  0  0  0  0  0  0  0  0
    0.9425   -1.5586   -4.6886 C   0  0  0  0  0  0  0  0  0  0  0  0
    1.9099   -1.9721   -5.5391 O   0  5  0  0  0  0  0  0  0  0  0  0
   -0.3172   -1.4677   -5.0777 N   0  0  0  0  0  0  0  0  0  0  0  0
   -1.2880   -1.0631   -4.2574 C   0  0  0  0  0  0  0  0  0  0  0  0
   -1.0976   -0.7196   -3.0013 N   0  0  0  0  0  0  0  0  0  0  0  0
   -2.6671   -0.9965   -4.7938 C   0  0  0  0  0  0  0  0  0  0  0  0
   -3.7246   -0.5748   -3.9844 C   0  0  0  0  0  0  0  0  0  0  0  0
   -4.9955   -0.5299   -4.5327 C   0  0  0  0  0  0  0  0  0  0  0  0
   -5.1794   -0.8999   -5.8519 C   0  0  0  0  0  0  0  0  0  0  0  0
   -4.1650   -1.2949   -6.5972 N   0  0  0  0  0  0  0  0  0  0  0  0
   -2.9324   -1.3497   -6.1228 C   0  0  0  0  0  0  0  0  0  0  0  0
   -1.9191   -1.7558   -6.9265 O   0  0  0  0  0  0  0  0  0  0  0  0
   -2.2566   -2.1019   -8.2713 C   0  0  2  0  0  0  0  0  0  0  0  0
   -3.1163   -1.5141   -8.5929 H   0  0  0  0  0  0  0  0  0  0  0  0
   -2.6009   -3.5909   -8.3436 C   0  0  0  0  0  0  0  0  0  0  0  0
   -1.0667   -1.8085   -9.1873 C   0  0  0  0  0  0  0  0  0  0  0  0
    0.0244   -2.6632   -8.8394 O   0  0  0  0  0  0  0  0  0  0  0  0
    1.1925   -2.4693   -9.6392 C   0  0  0  0  0  0  0  0  0  0  0  0
   -6.3662   -0.0063   -3.5572 S   0  0  0  0  0  0  0  0  0  0  0  0
   -7.5263   -0.5755   -4.1482 O   0  0  0  0  0  0  0  0  0  0  0  0
   -6.0109   -0.2368   -2.2007 O   0  0  0  0  0  0  0  0  0  0  0  0
   -6.4986    1.6343   -3.7395 N   0  0  0  0  0  0  0  0  0  0  0  0
   -5.7861    2.5539   -2.8394 C   0  0  0  0  0  0  0  0  0  0  0  0
   -5.0085    3.5632   -3.6907 C   0  0  0  0  0  0  0  0  0  0  0  0
   -5.9260    4.2089   -4.6390 N   0  0  0  0  0  0  0  0  0  0  0  0
   -6.4933    3.2335   -5.5796 C   0  0  0  0  0  0  0  0  0  0  0  0
   -7.3269    2.2106   -4.8095 C   0  0  0  0  0  0  0  0  0  0  0  0
   -5.2582    5.3039   -5.3551 C   0  0  0  0  0  0  0  0  0  0  0  0
   -6.2962    6.1068   -6.1417 C   0  0  0  0  0  0  0  0  0  0  0  0
    2.3234   -1.1468   -2.5475 N   0  0  0  0  0  0  0  0  0  0  0  0
    2.0236   -0.7385   -1.3653 N   0  0  0  0  0  0  0  0  0  0  0  0
    2.9983   -0.5688   -0.2848 C   0  0  0  0  0  0  0  0  0  0  0  0
    3.1178   -1.8554    0.4907 C   0  0  0  0  0  0  0  0  0  0  0  0
    4.3595   -2.4393    0.6581 C   0  0  0  0  0  0  0  0  0  0  0  0
    4.4585   -3.6228    1.3732 C   0  0  0  0  0  0  0  0  0  0  0  0
    3.2997   -4.1773    1.8954 C   0  0  0  0  0  0  0  0  0  0  0  0
    2.0934   -3.5363    1.6873 C   0  0  0  0  0  0  0  0  0  0  0  0
    2.0375   -2.4083    1.0062 N   0  0  0  0  0  0  0  0  0  0  0  0
    1.0039    1.9031    0.0027 H   0  0  0  0  0  0  0  0  0  0  0  0
   -0.5459    1.8868   -0.8726 H   0  0  0  0  0  0  0  0  0  0  0  0
   -0.5289    1.8773    0.9072 H   0  0  0  0  0  0  0  0  0  0  0  0
    0.5293   -0.3651    0.8851 H   0  0  0  0  0  0  0  0  0  0  0  0
   -1.0205   -0.3814    0.0098 H   0  0  0  0  0  0  0  0  0  0  0  0
   -3.5553   -0.2911   -2.9562 H   0  0  0  0  0  0  0  0  0  0  0  0
   -6.1705   -0.8652   -6.2796 H   0  0  0  0  0  0  0  0  0  0  0  0
   -2.8583   -3.8548   -9.3694 H   0  0  0  0  0  0  0  0  0  0  0  0
   -1.7412   -4.1787   -8.0220 H   0  0  0  0  0  0  0  0  0  0  0  0
   -3.4486   -3.7999   -7.6910 H   0  0  0  0  0  0  0  0  0  0  0  0
   -1.3530   -1.9882  -10.2236 H   0  0  0  0  0  0  0  0  0  0  0  0
   -0.7651   -0.7678   -9.0690 H   0  0  0  0  0  0  0  0  0  0  0  0
    0.9532   -2.6627  -10.6849 H   0  0  0  0  0  0  0  0  0  0  0  0
    1.5411   -1.4423   -9.5303 H   0  0  0  0  0  0  0  0  0  0  0  0
    1.9744   -3.1549   -9.3126 H   0  0  0  0  0  0  0  0  0  0  0  0
   -6.5042    3.0810   -2.2112 H   0  0  0  0  0  0  0  0  0  0  0  0
   -5.0928    1.9908   -2.2146 H   0  0  0  0  0  0  0  0  0  0  0  0
   -4.5637    4.3189   -3.0431 H   0  0  0  0  0  0  0  0  0  0  0  0
   -4.2221    3.0460   -4.2403 H   0  0  0  0  0  0  0  0  0  0  0  0
   -7.1254    3.7500   -6.3020 H   0  0  0  0  0  0  0  0  0  0  0  0
   -5.6862    2.7209   -6.1029 H   0  0  0  0  0  0  0  0  0  0  0  0
   -7.6518    1.4206   -5.4867 H   0  0  0  0  0  0  0  0  0  0  0  0
   -8.1960    2.7040   -4.3744 H   0  0  0  0  0  0  0  0  0  0  0  0
   -4.7609    5.9570   -4.6380 H   0  0  0  0  0  0  0  0  0  0  0  0
   -4.5204    4.8913   -6.0432 H   0  0  0  0  0  0  0  0  0  0  0  0
   -5.8007    6.9193   -6.6730 H   0  0  0  0  0  0  0  0  0  0  0  0
   -6.7935    5.4537   -6.8588 H   0  0  0  0  0  0  0  0  0  0  0  0
   -7.0340    6.5194   -5.4536 H   0  0  0  0  0  0  0  0  0  0  0  0
    3.9684   -0.3083   -0.7082 H   0  0  0  0  0  0  0  0  0  0  0  0
    2.6670    0.2277    0.3816 H   0  0  0  0  0  0  0  0  0  0  0  0
    5.2413   -1.9794    0.2369 H   0  0  0  0  0  0  0  0  0  0  0  0
    5.4154   -4.1017    1.5197 H   0  0  0  0  0  0  0  0  0  0  0  0
    3.3396   -5.0986    2.4574 H   0  0  0  0  0  0  0  0  0  0  0  0
    1.1864   -3.9617    2.0907 H   0  0  0  0  0  0  0  0  0  0  0  0
  1  2  1  0  0  0  0
  1 44  1  0  0  0  0
  1 45  1  0  0  0  0
  1 46  1  0  0  0  0
  2  3  1  0  0  0  0
  2 47  1  0  0  0  0
  2 48  1  0  0  0  0
  3 36  1  0  0  0  0
  3  4  2  0  0  0  0
  4 10  1  0  0  0  0
  4  5  1  0  0  0  0
  5  6  1  0  0  0  0
  5 35  2  0  0  0  0
  6  7  1  0  0  0  0
  6  8  2  0  0  0  0
  8  9  1  0  0  0  0
  9 10  2  0  0  0  0
  9 11  1  0  0  0  0
 11 16  2  0  0  0  0
 11 12  1  0  0  0  0
 12 13  2  0  0  0  0
 12 49  1  0  0  0  0
 13 14  1  0  0  0  0
 13 24  1  0  0  0  0
 14 15  2  0  0  0  0
 14 50  1  0  0  0  0
 15 16  1  0  0  0  0
 16 17  1  0  0  0  0
 17 18  1  0  0  0  0
 18 19  1  0  0  0  0
 18 20  1  0  0  0  0
 18 21  1  0  0  0  0
 20 51  1  0  0  0  0
 20 52  1  0  0  0  0
 20 53  1  0  0  0  0
 21 22  1  0  0  0  0
 21 54  1  0  0  0  0
 21 55  1  0  0  0  0
 22 23  1  0  0  0  0
 23 56  1  0  0  0  0
 23 57  1  0  0  0  0
 23 58  1  0  0  0  0
 24 25  2  0  0  0  0
 24 26  2  0  0  0  0
 24 27  1  0  0  0  0
 27 32  1  0  0  0  0
 27 28  1  0  0  0  0
 28 29  1  0  0  0  0
 28 59  1  0  0  0  0
 28 60  1  0  0  0  0
 29 30  1  0  0  0  0
 29 61  1  0  0  0  0
 29 62  1  0  0  0  0
 30 31  1  0  0  0  0
 30 33  1  0  0  0  0
 31 32  1  0  0  0  0
 31 63  1  0  0  0  0
 31 64  1  0  0  0  0
 32 65  1  0  0  0  0
 32 66  1  0  0  0  0
 33 34  1  0  0  0  0
 33 67  1  0  0  0  0
 33 68  1  0  0  0  0
 34 69  1  0  0  0  0
 34 70  1  0  0  0  0
 34 71  1  0  0  0  0
 35 36  1  0  0  0  0
 36 37  1  0  0  0  0
 37 38  1  0  0  0  0
 37 72  1  0  0  0  0
 37 73  1  0  0  0  0
 38 43  2  0  0  0  0
 38 39  1  0  0  0  0
 39 40  2  0  0  0  0
 39 74  1  0  0  0  0
 40 41  1  0  0  0  0
 40 75  1  0  0  0  0
 41 42  2  0  0  0  0
 41 76  1  0  0  0  0
 42 43  1  0  0  0  0
 42 77  1  0  0  0  0
M  CHG  1   7  -1
M  END
$$$$
CHEMBL514435
  -OEChem-07121202283D

 76 79  0     1  0  0  0  0  0999 V2000
   -0.0187    1.5258    0.0104 C   0  0  0  0  0  0  0  0  0  0  0  0
    0.0021   -0.0041    0.0020 C   0  0  0  0  0  0  0  0  0  0  0  0
   -1.4117   -0.5257    0.0127 C   0  0  0  0  0  0  0  0  0  0  0  0
   -2.1728   -0.8099    1.1256 C   0  0  0  0  0  0  0  0  0  0  0  0
   -3.4589   -1.2827    0.5767 C   0  0  0  0  0  0  0  0  0  0  0  0
   -4.4901   -1.6666    1.5381 C   0  0  0  0  0  0  0  0  0  0  0  0
   -5.6995   -2.1120    1.1270 O   0  5  0  0  0  0  0  0  0  0  0  0
   -4.1998   -1.5638    2.8233 N   0  0  0  0  0  0  0  0  0  0  0  0
   -3.0145   -1.1278    3.2525 C   0  0  0  0  0  0  0  0  0  0  0  0
   -2.0308   -0.7623    2.4584 N   0  0  0  0  0  0  0  0  0  0  0  0
   -2.7914   -1.0505    4.7148 C   0  0  0  0  0  0  0  0  0  0  0  0
   -1.5728   -0.5963    5.2245 C   0  0  0  0  0  0  0  0  0  0  0  0
   -1.4136   -0.5425    6.5991 C   0  0  0  0  0  0  0  0  0  0  0  0
   -2.4546   -0.9359    7.4193 C   0  0  0  0  0  0  0  0  0  0  0  0
   -3.5969   -1.3615    6.9147 N   0  0  0  0  0  0  0  0  0  0  0  0
   -3.8007   -1.4260    5.6102 C   0  0  0  0  0  0  0  0  0  0  0  0
   -4.9927   -1.8638    5.1359 O   0  0  0  0  0  0  0  0  0  0  0  0
   -5.9797   -2.2314    6.1017 C   0  0  2  0  0  0  0  0  0  0  0  0
   -5.8433   -1.6369    7.0050 H   0  0  0  0  0  0  0  0  0  0  0  0
   -5.8329   -3.7160    6.4413 C   0  0  0  0  0  0  0  0  0  0  0  0
   -7.3748   -1.9750    5.5282 C   0  0  0  0  0  0  0  0  0  0  0  0
   -7.5974   -2.8395    4.4123 O   0  0  0  0  0  0  0  0  0  0  0  0
   -8.8786   -2.6798    3.7998 C   0  0  0  0  0  0  0  0  0  0  0  0
    0.1029    0.0218    7.2966 S   0  0  0  0  0  0  0  0  0  0  0  0
    0.1852   -0.5410    8.5988 O   0  0  0  0  0  0  0  0  0  0  0  0
    1.1056   -0.1871    6.3116 O   0  0  0  0  0  0  0  0  0  0  0  0
   -0.0300    1.6603    7.4967 N   0  0  0  0  0  0  0  0  0  0  0  0
    0.3698    2.5878    6.4272 C   0  0  0  0  0  0  0  0  0  0  0  0
   -0.7747    3.5786    6.1905 C   0  0  0  0  0  0  0  0  0  0  0  0
   -1.1262    4.2308    7.4583 N   0  3  0  0  0  0  0  0  0  0  0  0
   -1.6527    3.2373    8.4027 C   0  0  0  0  0  0  0  0  0  0  0  0
   -0.5569    2.2294    8.7468 C   0  0  0  0  0  0  0  0  0  0  0  0
   -2.1467    5.2584    7.2118 C   0  0  0  0  0  0  0  0  0  0  0  0
   -2.4237    6.0232    8.5077 C   0  0  0  0  0  0  0  0  0  0  0  0
   -3.3367   -1.2336   -0.7298 N   0  0  0  0  0  0  0  0  0  0  0  0
   -2.1735   -0.7971   -1.0626 N   0  0  0  0  0  0  0  0  0  0  0  0
   -1.7294   -0.6210   -2.4475 C   0  0  0  0  0  0  0  0  0  0  0  0
   -1.0756   -1.9130   -2.9416 C   0  0  0  0  0  0  0  0  0  0  0  0
   -0.6423   -1.7411   -4.2925 O   0  0  0  0  0  0  0  0  0  0  0  0
   -0.0143   -2.8960   -4.8528 C   0  0  0  0  0  0  0  0  0  0  0  0
    1.0039    1.9031    0.0027 H   0  0  0  0  0  0  0  0  0  0  0  0
   -0.5459    1.8868   -0.8726 H   0  0  0  0  0  0  0  0  0  0  0  0
   -0.5289    1.8773    0.9072 H   0  0  0  0  0  0  0  0  0  0  0  0
    0.5123   -0.3556   -0.8948 H   0  0  0  0  0  0  0  0  0  0  0  0
    0.5293   -0.3651    0.8851 H   0  0  0  0  0  0  0  0  0  0  0  0
   -0.7743   -0.2948    4.5628 H   0  0  0  0  0  0  0  0  0  0  0  0
   -2.3305   -0.8944    8.4913 H   0  0  0  0  0  0  0  0  0  0  0  0
   -6.5858   -3.9964    7.1780 H   0  0  0  0  0  0  0  0  0  0  0  0
   -5.9693   -4.3106    5.5380 H   0  0  0  0  0  0  0  0  0  0  0  0
   -4.8391   -3.8987    6.8499 H   0  0  0  0  0  0  0  0  0  0  0  0
   -8.1245   -2.1709    6.2948 H   0  0  0  0  0  0  0  0  0  0  0  0
   -7.4493   -0.9369    5.2041 H   0  0  0  0  0  0  0  0  0  0  0  0
   -8.9693   -3.3708    2.9618 H   0  0  0  0  0  0  0  0  0  0  0  0
   -9.6594   -2.8904    4.5306 H   0  0  0  0  0  0  0  0  0  0  0  0
   -8.9842   -1.6564    3.4399 H   0  0  0  0  0  0  0  0  0  0  0  0
    1.2667    3.1292    6.7282 H   0  0  0  0  0  0  0  0  0  0  0  0
    0.5656    2.0290    5.5120 H   0  0  0  0  0  0  0  0  0  0  0  0
   -0.4595    4.3325    5.4691 H   0  0  0  0  0  0  0  0  0  0  0  0
   -1.6429    3.0454    5.8032 H   0  0  0  0  0  0  0  0  0  0  0  0
   -1.9844    3.7397    9.3113 H   0  0  0  0  0  0  0  0  0  0  0  0
   -2.4943    2.7144    7.9484 H   0  0  0  0  0  0  0  0  0  0  0  0
   -0.9735    1.4338    9.3644 H   0  0  0  0  0  0  0  0  0  0  0  0
    0.2448    2.7340    9.2860 H   0  0  0  0  0  0  0  0  0  0  0  0
   -1.7881    5.9513    6.4506 H   0  0  0  0  0  0  0  0  0  0  0  0
   -3.0650    4.7831    6.8670 H   0  0  0  0  0  0  0  0  0  0  0  0
   -2.7822    5.3303    9.2690 H   0  0  0  0  0  0  0  0  0  0  0  0
   -1.5054    6.4984    8.8525 H   0  0  0  0  0  0  0  0  0  0  0  0
   -3.1809    6.7856    8.3248 H   0  0  0  0  0  0  0  0  0  0  0  0
   -2.5872   -0.3841   -3.0768 H   0  0  0  0  0  0  0  0  0  0  0  0
   -1.0069    0.1937   -2.4965 H   0  0  0  0  0  0  0  0  0  0  0  0
   -0.2177   -2.1498   -2.3123 H   0  0  0  0  0  0  0  0  0  0  0  0
   -1.7981   -2.7276   -2.8926 H   0  0  0  0  0  0  0  0  0  0  0  0
    0.8656   -3.1532   -4.2631 H   0  0  0  0  0  0  0  0  0  0  0  0
   -0.7148   -3.7310   -4.8435 H   0  0  0  0  0  0  0  0  0  0  0  0
    0.2853   -2.6846   -5.8793 H   0  0  0  0  0  0  0  0  0  0  0  0
   -0.3042    4.6642    7.8514 H   0  0  0  0  0  0  0  0  0  0  0  0
  1  2  1  0  0  0  0
  1 41  1  0  0  0  0
  1 42  1  0  0  0  0
  1 43  1  0  0  0  0
  2  3  1  0  0  0  0
  2 44  1  0  0  0  0
  2 45  1  0  0  0  0
  3 36  1  0  0  0  0
  3  4  2  0  0  0  0
  4 10  1  0  0  0  0
  4  5  1  0  0  0  0
  5  6  1  0  0  0  0
  5 35  2  0  0  0  0
  6  7  1  0  0  0  0
  6  8  2  0  0  0  0
  8  9  1  0  0  0  0
  9 10  2  0  0  0  0
  9 11  1  0  0  0  0
 11 16  2  0  0  0  0
 11 12  1  0  0  0  0
 12 13  2  0  0  0  0
 12 46  1  0  0  0  0
 13 14  1  0  0  0  0
 13 24  1  0  0  0  0
 14 15  2  0  0  0  0
 14 47  1  0  0  0  0
 15 16  1  0  0  0  0
 16 17  1  0  0  0  0
 17 18  1  0  0  0  0
 18 19  1  0  0  0  0
 18 20  1  0  0  0  0
 18 21  1  0  0  0  0
 20 48  1  0  0  0  0
 20 49  1  0  0  0  0
 20 50  1  0  0  0  0
 21 22  1  0  0  0  0
 21 51  1  0  0  0  0
 21 52  1  0  0  0  0
 22 23  1  0  0  0  0
 23 53  1  0  0  0  0
 23 54  1  0  0  0  0
 23 55  1  0  0  0  0
 24 25  2  0  0  0  0
 24 26  2  0  0  0  0
 24 27  1  0  0  0  0
 27 32  1  0  0  0  0
 27 28  1  0  0  0  0
 28 29  1  0  0  0  0
 28 56  1  0  0  0  0
 28 57  1  0  0  0  0
 29 30  1  0  0  0  0
 29 58  1  0  0  0  0
 29 59  1  0  0  0  0
 30 31  1  0  0  0  0
 30 33  1  0  0  0  0
 30 76  1  0  0  0  0
 31 32  1  0  0  0  0
 31 60  1  0  0  0  0
 31 61  1  0  0  0  0
 32 62  1  0  0  0  0
 32 63  1  0  0  0  0
 33 34  1  0  0  0  0
 33 64  1  0  0  0  0
 33 65  1  0  0  0  0
 34 66  1  0  0  0  0
 34 67  1  0  0  0  0
 34 68  1  0  0  0  0
 35 36  1  0  0  0  0
 36 37  1  0  0  0  0
 37 38  1  0  0  0  0
 37 69  1  0  0  0  0
 37 70  1  0  0  0  0
 38 39  1  0  0  0  0
 38 71  1  0  0  0  0
 38 72  1  0  0  0  0
 39 40  1  0  0  0  0
 40 73  1  0  0  0  0
 40 74  1  0  0  0  0
 40 75  1  0  0  0  0
M  CHG  2   7  -1  30   1
M  END
$$$$
CHEMBL514435
  -OEChem-07121202283D

 76 79  0     1  0  0  0  0  0999 V2000
   -0.0187    1.5258    0.0104 C   0  0  0  0  0  0  0  0  0  0  0  0
    0.0021   -0.0041    0.0020 C   0  0  0  0  0  0  0  0  0  0  0  0
    0.7074   -0.4901   -1.2379 C   0  0  0  0  0  0  0  0  0  0  0  0
    0.1379   -0.7541   -2.4375 C   0  0  0  0  0  0  0  0  0  0  0  0
    1.2033   -1.1800   -3.2790 C   0  0  0  0  0  0  0  0  0  0  0  0
    0.8734   -1.5406   -4.6702 C   0  0  0  0  0  0  0  0  0  0  0  0
    1.7428   -1.9132   -5.4396 O   0  0  0  0  0  0  0  0  0  0  0  0
   -0.4033   -1.4504   -5.0712 N   0  0  0  0  0  0  0  0  0  0  0  0
   -1.3638   -1.0521   -4.2644 C   0  0  0  0  0  0  0  0  0  0  0  0
   -1.1447   -0.7015   -2.9678 N   0  0  0  0  0  0  0  0  0  0  0  0
   -2.7397   -0.9825   -4.7891 C   0  0  0  0  0  0  0  0  0  0  0  0
   -3.7942   -0.5591   -3.9707 C   0  0  0  0  0  0  0  0  0  0  0  0
   -5.0667   -0.5115   -4.5111 C   0  0  0  0  0  0  0  0  0  0  0  0
   -5.2598   -0.8796   -5.8308 C   0  0  0  0  0  0  0  0  0  0  0  0
   -4.2521   -1.2754   -6.5842 N   0  0  0  0  0  0  0  0  0  0  0  0
   -3.0156   -1.3338   -6.1196 C   0  0  0  0  0  0  0  0  0  0  0  0
   -2.0102   -1.7407   -6.9307 O   0  0  0  0  0  0  0  0  0  0  0  0
   -2.3585   -2.0839   -8.2735 C   0  0  2  0  0  0  0  0  0  0  0  0
   -3.2191   -1.4934   -8.5878 H   0  0  0  0  0  0  0  0  0  0  0  0
   -2.7071   -3.5719   -8.3456 C   0  0  0  0  0  0  0  0  0  0  0  0
   -1.1747   -1.7920   -9.1979 C   0  0  0  0  0  0  0  0  0  0  0  0
   -0.0832   -2.6499   -8.8594 O   0  0  0  0  0  0  0  0  0  0  0  0
    1.0795   -2.4576   -9.6676 C   0  0  0  0  0  0  0  0  0  0  0  0
   -6.4306    0.0130   -3.5267 S   0  0  0  0  0  0  0  0  0  0  0  0
   -7.5952   -0.5535   -4.1115 O   0  0  0  0  0  0  0  0  0  0  0  0
   -6.0676   -0.2200   -2.1727 O   0  0  0  0  0  0  0  0  0  0  0  0
   -6.5614    1.6541   -3.7059 N   0  0  0  0  0  0  0  0  0  0  0  0
   -5.8420    2.5711   -2.8088 C   0  0  0  0  0  0  0  0  0  0  0  0
   -5.0679    3.5804   -3.6633 C   0  0  0  0  0  0  0  0  0  0  0  0
   -5.9900    4.2289   -4.6052 N   0  0  0  0  0  0  0  0  0  0  0  0
   -6.5645    3.2558   -5.5438 C   0  0  0  0  0  0  0  0  0  0  0  0
   -7.3952    2.2332   -4.7702 C   0  0  0  0  0  0  0  0  0  0  0  0
   -5.3246    5.3238   -5.3238 C   0  0  0  0  0  0  0  0  0  0  0  0
   -6.3660    6.1295   -6.1030 C   0  0  0  0  0  0  0  0  0  0  0  0
    2.2983   -1.1449   -2.5577 N   0  0  0  0  0  0  0  0  0  0  0  0
    2.0303   -0.7396   -1.3653 N   0  0  0  0  0  0  0  0  0  0  0  0
    3.0186   -0.5760   -0.2963 C   0  0  0  0  0  0  0  0  0  0  0  0
    3.1445   -1.8845    0.4865 C   0  0  0  0  0  0  0  0  0  0  0  0
    4.1085   -1.7248    1.5293 O   0  0  0  0  0  0  0  0  0  0  0  0
    4.3032   -2.8957    2.3250 C   0  0  0  0  0  0  0  0  0  0  0  0
    1.0039    1.9031    0.0027 H   0  0  0  0  0  0  0  0  0  0  0  0
   -0.5459    1.8868   -0.8726 H   0  0  0  0  0  0  0  0  0  0  0  0
   -0.5289    1.8773    0.9072 H   0  0  0  0  0  0  0  0  0  0  0  0
    0.5293   -0.3651    0.8851 H   0  0  0  0  0  0  0  0  0  0  0  0
   -1.0205   -0.3814    0.0098 H   0  0  0  0  0  0  0  0  0  0  0  0
   -3.6184   -0.2771   -2.9431 H   0  0  0  0  0  0  0  0  0  0  0  0
   -6.2537   -0.8424   -6.2516 H   0  0  0  0  0  0  0  0  0  0  0  0
   -3.5504   -3.7798   -7.6871 H   0  0  0  0  0  0  0  0  0  0  0  0
   -2.9727   -3.8336   -9.3699 H   0  0  0  0  0  0  0  0  0  0  0  0
   -1.8464   -4.1623   -8.0313 H   0  0  0  0  0  0  0  0  0  0  0  0
   -1.4691   -1.9694  -10.2323 H   0  0  0  0  0  0  0  0  0  0  0  0
   -0.8696   -0.7522   -9.0802 H   0  0  0  0  0  0  0  0  0  0  0  0
    0.8319   -2.6488  -10.7117 H   0  0  0  0  0  0  0  0  0  0  0  0
    1.4314   -1.4316   -9.5596 H   0  0  0  0  0  0  0  0  0  0  0  0
    1.8621   -3.1457   -9.3479 H   0  0  0  0  0  0  0  0  0  0  0  0
   -6.5554    3.0985   -2.1756 H   0  0  0  0  0  0  0  0  0  0  0  0
   -5.1459    2.0060   -2.1890 H   0  0  0  0  0  0  0  0  0  0  0  0
   -4.6179    4.3344   -3.0174 H   0  0  0  0  0  0  0  0  0  0  0  0
   -4.2856    3.0627   -4.2183 H   0  0  0  0  0  0  0  0  0  0  0  0
   -7.2000    3.7743   -6.2616 H   0  0  0  0  0  0  0  0  0  0  0  0
   -5.7614    2.7426   -6.0726 H   0  0  0  0  0  0  0  0  0  0  0  0
   -7.7255    1.4447   -5.4464 H   0  0  0  0  0  0  0  0  0  0  0  0
   -8.2608    2.7275   -4.3291 H   0  0  0  0  0  0  0  0  0  0  0  0
   -4.8219    5.9751   -4.6088 H   0  0  0  0  0  0  0  0  0  0  0  0
   -4.5916    4.9110   -6.0169 H   0  0  0  0  0  0  0  0  0  0  0  0
   -7.0990    6.5424   -5.4099 H   0  0  0  0  0  0  0  0  0  0  0  0
   -5.8723    6.9420   -6.6362 H   0  0  0  0  0  0  0  0  0  0  0  0
   -6.8687    5.4783   -6.8180 H   0  0  0  0  0  0  0  0  0  0  0  0
    3.9844   -0.3180   -0.7307 H   0  0  0  0  0  0  0  0  0  0  0  0
    2.6982    0.2201    0.3759 H   0  0  0  0  0  0  0  0  0  0  0  0
    2.1787   -2.1424    0.9209 H   0  0  0  0  0  0  0  0  0  0  0  0
    3.4649   -2.6806   -0.1856 H   0  0  0  0  0  0  0  0  0  0  0  0
    5.0492   -2.6928    3.0935 H   0  0  0  0  0  0  0  0  0  0  0  0
    3.3614   -3.1746    2.7976 H   0  0  0  0  0  0  0  0  0  0  0  0
    4.6476   -3.7127    1.6911 H   0  0  0  0  0  0  0  0  0  0  0  0
   -1.8863   -0.4142   -2.4125 H   0  0  0  0  0  0  0  0  0  0  0  0
  1  2  1  0  0  0  0
  1 41  1  0  0  0  0
  1 42  1  0  0  0  0
  1 43  1  0  0  0  0
  2  3  1  0  0  0  0
  2 44  1  0  0  0  0
  2 45  1  0  0  0  0
  3 36  1  0  0  0  0
  3  4  2  0  0  0  0
  4 10  1  0  0  0  0
  4  5  1  0  0  0  0
  5  6  1  0  0  0  0
  5 35  2  0  0  0  0
  6  7  2  0  0  0  0
  6  8  1  0  0  0  0
  8  9  2  0  0  0  0
  9 10  1  0  0  0  0
  9 11  1  0  0  0  0
 10 76  1  0  0  0  0
 11 16  2  0  0  0  0
 11 12  1  0  0  0  0
 12 13  2  0  0  0  0
 12 46  1  0  0  0  0
 13 14  1  0  0  0  0
 13 24  1  0  0  0  0
 14 15  2  0  0  0  0
 14 47  1  0  0  0  0
 15 16  1  0  0  0  0
 16 17  1  0  0  0  0
 17 18  1  0  0  0  0
 18 19  1  0  0  0  0
 18 20  1  0  0  0  0
 18 21  1  0  0  0  0
 20 48  1  0  0  0  0
 20 49  1  0  0  0  0
 20 50  1  0  0  0  0
 21 22  1  0  0  0  0
 21 51  1  0  0  0  0
 21 52  1  0  0  0  0
 22 23  1  0  0  0  0
 23 53  1  0  0  0  0
 23 54  1  0  0  0  0
 23 55  1  0  0  0  0
 24 25  2  0  0  0  0
 24 26  2  0  0  0  0
 24 27  1  0  0  0  0
 27 32  1  0  0  0  0
 27 28  1  0  0  0  0
 28 29  1  0  0  0  0
 28 56  1  0  0  0  0
 28 57  1  0  0  0  0
 29 30  1  0  0  0  0
 29 58  1  0  0  0  0
 29 59  1  0  0  0  0
 30 31  1  0  0  0  0
 30 33  1  0  0  0  0
 31 32  1  0  0  0  0
 31 60  1  0  0  0  0
 31 61  1  0  0  0  0
 32 62  1  0  0  0  0
 32 63  1  0  0  0  0
 33 34  1  0  0  0  0
 33 64  1  0  0  0  0
 33 65  1  0  0  0  0
 34 66  1  0  0  0  0
 34 67  1  0  0  0  0
 34 68  1  0  0  0  0
 35 36  1  0  0  0  0
 36 37  1  0  0  0  0
 37 38  1  0  0  0  0
 37 69  1  0  0  0  0
 37 70  1  0  0  0  0
 38 39  1  0  0  0  0
 38 71  1  0  0  0  0
 38 72  1  0  0  0  0
 39 40  1  0  0  0  0
 40 73  1  0  0  0  0
 40 74  1  0  0  0  0
 40 75  1  0  0  0  0
M  END
$$$$
CHEMBL514435
  -OEChem-07121202283D

 77 80  0     1  0  0  0  0  0999 V2000
   -0.0187    1.5258    0.0104 C   0  0  0  0  0  0  0  0  0  0  0  0
    0.0021   -0.0041    0.0020 C   0  0  0  0  0  0  0  0  0  0  0  0
    0.7074   -0.4901   -1.2379 C   0  0  0  0  0  0  0  0  0  0  0  0
    0.1379   -0.7541   -2.4375 C   0  0  0  0  0  0  0  0  0  0  0  0
    1.2033   -1.1800   -3.2790 C   0  0  0  0  0  0  0  0  0  0  0  0
    0.8734   -1.5406   -4.6702 C   0  0  0  0  0  0  0  0  0  0  0  0
    1.7428   -1.9132   -5.4396 O   0  0  0  0  0  0  0  0  0  0  0  0
   -0.4033   -1.4504   -5.0712 N   0  0  0  0  0  0  0  0  0  0  0  0
   -1.3638   -1.0521   -4.2644 C   0  0  0  0  0  0  0  0  0  0  0  0
   -1.1447   -0.7015   -2.9678 N   0  0  0  0  0  0  0  0  0  0  0  0
   -2.7397   -0.9825   -4.7891 C   0  0  0  0  0  0  0  0  0  0  0  0
   -3.7942   -0.5591   -3.9707 C   0  0  0  0  0  0  0  0  0  0  0  0
   -5.0667   -0.5115   -4.5111 C   0  0  0  0  0  0  0  0  0  0  0  0
   -5.2598   -0.8796   -5.8308 C   0  0  0  0  0  0  0  0  0  0  0  0
   -4.2521   -1.2754   -6.5842 N   0  0  0  0  0  0  0  0  0  0  0  0
   -3.0156   -1.3338   -6.1196 C   0  0  0  0  0  0  0  0  0  0  0  0
   -2.0102   -1.7407   -6.9307 O   0  0  0  0  0  0  0  0  0  0  0  0
   -2.3585   -2.0839   -8.2735 C   0  0  2  0  0  0  0  0  0  0  0  0
   -3.2191   -1.4934   -8.5878 H   0  0  0  0  0  0  0  0  0  0  0  0
   -2.7071   -3.5719   -8.3456 C   0  0  0  0  0  0  0  0  0  0  0  0
   -1.1747   -1.7920   -9.1979 C   0  0  0  0  0  0  0  0  0  0  0  0
   -0.0832   -2.6499   -8.8594 O   0  0  0  0  0  0  0  0  0  0  0  0
    1.0795   -2.4576   -9.6676 C   0  0  0  0  0  0  0  0  0  0  0  0
   -6.4306    0.0130   -3.5267 S   0  0  0  0  0  0  0  0  0  0  0  0
   -7.5952   -0.5535   -4.1115 O   0  0  0  0  0  0  0  0  0  0  0  0
   -6.0676   -0.2200   -2.1727 O   0  0  0  0  0  0  0  0  0  0  0  0
   -6.5614    1.6541   -3.7059 N   0  0  0  0  0  0  0  0  0  0  0  0
   -5.8424    2.5725   -2.8095 C   0  0  0  0  0  0  0  0  0  0  0  0
   -5.0844    3.5926   -3.6654 C   0  0  0  0  0  0  0  0  0  0  0  0
   -6.0213    4.2518   -4.5840 N   0  3  0  0  0  0  0  0  0  0  0  0
   -6.5679    3.2707   -5.5300 C   0  0  0  0  0  0  0  0  0  0  0  0
   -7.3950    2.2347   -4.7699 C   0  0  0  0  0  0  0  0  0  0  0  0
   -5.3166    5.3054   -5.3265 C   0  0  0  0  0  0  0  0  0  0  0  0
   -6.3163    6.0752   -6.1919 C   0  0  0  0  0  0  0  0  0  0  0  0
    2.2983   -1.1449   -2.5577 N   0  0  0  0  0  0  0  0  0  0  0  0
    2.0303   -0.7396   -1.3653 N   0  0  0  0  0  0  0  0  0  0  0  0
    3.0186   -0.5760   -0.2963 C   0  0  0  0  0  0  0  0  0  0  0  0
    3.1445   -1.8845    0.4865 C   0  0  0  0  0  0  0  0  0  0  0  0
    4.1085   -1.7248    1.5293 O   0  0  0  0  0  0  0  0  0  0  0  0
    4.3032   -2.8957    2.3250 C   0  0  0  0  0  0  0  0  0  0  0  0
    1.0039    1.9031    0.0027 H   0  0  0  0  0  0  0  0  0  0  0  0
   -0.5459    1.8868   -0.8726 H   0  0  0  0  0  0  0  0  0  0  0  0
   -0.5289    1.8773    0.9072 H   0  0  0  0  0  0  0  0  0  0  0  0
    0.5293   -0.3651    0.8851 H   0  0  0  0  0  0  0  0  0  0  0  0
   -1.0205   -0.3814    0.0098 H   0  0  0  0  0  0  0  0  0  0  0  0
   -3.6184   -0.2771   -2.9431 H   0  0  0  0  0  0  0  0  0  0  0  0
   -6.2537   -0.8424   -6.2516 H   0  0  0  0  0  0  0  0  0  0  0  0
   -1.8464   -4.1623   -8.0313 H   0  0  0  0  0  0  0  0  0  0  0  0
   -3.5504   -3.7798   -7.6871 H   0  0  0  0  0  0  0  0  0  0  0  0
   -2.9727   -3.8336   -9.3699 H   0  0  0  0  0  0  0  0  0  0  0  0
   -1.4691   -1.9694  -10.2323 H   0  0  0  0  0  0  0  0  0  0  0  0
   -0.8696   -0.7522   -9.0802 H   0  0  0  0  0  0  0  0  0  0  0  0
    1.8621   -3.1457   -9.3479 H   0  0  0  0  0  0  0  0  0  0  0  0
    0.8319   -2.6488  -10.7117 H   0  0  0  0  0  0  0  0  0  0  0  0
    1.4314   -1.4316   -9.5596 H   0  0  0  0  0  0  0  0  0  0  0  0
   -6.5550    3.0905   -2.1676 H   0  0  0  0  0  0  0  0  0  0  0  0
   -5.1363    2.0102   -2.1986 H   0  0  0  0  0  0  0  0  0  0  0  0
   -4.6238    4.3391   -3.0185 H   0  0  0  0  0  0  0  0  0  0  0  0
   -4.3111    3.0821   -4.2395 H   0  0  0  0  0  0  0  0  0  0  0  0
   -7.2004    3.7801   -6.2569 H   0  0  0  0  0  0  0  0  0  0  0  0
   -5.7497    2.7700   -6.0476 H   0  0  0  0  0  0  0  0  0  0  0  0
   -7.7147    1.4491   -5.4545 H   0  0  0  0  0  0  0  0  0  0  0  0
   -8.2670    2.7180   -4.3294 H   0  0  0  0  0  0  0  0  0  0  0  0
   -4.8419    5.9899   -4.6236 H   0  0  0  0  0  0  0  0  0  0  0  0
   -4.5562    4.8541   -5.9640 H   0  0  0  0  0  0  0  0  0  0  0  0
   -5.7934    6.8569   -6.7429 H   0  0  0  0  0  0  0  0  0  0  0  0
   -6.7910    5.3906   -6.8949 H   0  0  0  0  0  0  0  0  0  0  0  0
   -7.0767    6.5264   -5.5545 H   0  0  0  0  0  0  0  0  0  0  0  0
    3.9844   -0.3180   -0.7307 H   0  0  0  0  0  0  0  0  0  0  0  0
    2.6982    0.2201    0.3759 H   0  0  0  0  0  0  0  0  0  0  0  0
    2.1787   -2.1424    0.9209 H   0  0  0  0  0  0  0  0  0  0  0  0
    3.4649   -2.6806   -0.1856 H   0  0  0  0  0  0  0  0  0  0  0  0
    3.3614   -3.1746    2.7976 H   0  0  0  0  0  0  0  0  0  0  0  0
    4.6476   -3.7127    1.6911 H   0  0  0  0  0  0  0  0  0  0  0  0
    5.0492   -2.6928    3.0935 H   0  0  0  0  0  0  0  0  0  0  0  0
   -6.7755    4.6635   -4.0550 H   0  0  0  0  0  0  0  0  0  0  0  0
   -1.8863   -0.4142   -2.4125 H   0  0  0  0  0  0  0  0  0  0  0  0
  1  2  1  0  0  0  0
  1 41  1  0  0  0  0
  1 42  1  0  0  0  0
  1 43  1  0  0  0  0
  2  3  1  0  0  0  0
  2 44  1  0  0  0  0
  2 45  1  0  0  0  0
  3 36  1  0  0  0  0
  3  4  2  0  0  0  0
  4 10  1  0  0  0  0
  4  5  1  0  0  0  0
  5  6  1  0  0  0  0
  5 35  2  0  0  0  0
  6  7  2  0  0  0  0
  6  8  1  0  0  0  0
  8  9  2  0  0  0  0
  9 10  1  0  0  0  0
  9 11  1  0  0  0  0
 10 77  1  0  0  0  0
 11 16  2  0  0  0  0
 11 12  1  0  0  0  0
 12 13  2  0  0  0  0
 12 46  1  0  0  0  0
 13 14  1  0  0  0  0
 13 24  1  0  0  0  0
 14 15  2  0  0  0  0
 14 47  1  0  0  0  0
 15 16  1  0  0  0  0
 16 17  1  0  0  0  0
 17 18  1  0  0  0  0
 18 19  1  0  0  0  0
 18 20  1  0  0  0  0
 18 21  1  0  0  0  0
 20 48  1  0  0  0  0
 20 49  1  0  0  0  0
 20 50  1  0  0  0  0
 21 22  1  0  0  0  0
 21 51  1  0  0  0  0
 21 52  1  0  0  0  0
 22 23  1  0  0  0  0
 23 53  1  0  0  0  0
 23 54  1  0  0  0  0
 23 55  1  0  0  0  0
 24 25  2  0  0  0  0
 24 26  2  0  0  0  0
 24 27  1  0  0  0  0
 27 32  1  0  0  0  0
 27 28  1  0  0  0  0
 28 29  1  0  0  0  0
 28 56  1  0  0  0  0
 28 57  1  0  0  0  0
 29 30  1  0  0  0  0
 29 58  1  0  0  0  0
 29 59  1  0  0  0  0
 30 31  1  0  0  0  0
 30 33  1  0  0  0  0
 30 76  1  0  0  0  0
 31 32  1  0  0  0  0
 31 60  1  0  0  0  0
 31 61  1  0  0  0  0
 32 62  1  0  0  0  0
 32 63  1  0  0  0  0
 33 34  1  0  0  0  0
 33 64  1  0  0  0  0
 33 65  1  0  0  0  0
 34 66  1  0  0  0  0
 34 67  1  0  0  0  0
 34 68  1  0  0  0  0
 35 36  1  0  0  0  0
 36 37  1  0  0  0  0
 37 38  1  0  0  0  0
 37 69  1  0  0  0  0
 37 70  1  0  0  0  0
 38 39  1  0  0  0  0
 38 71  1  0  0  0  0
 38 72  1  0  0  0  0
 39 40  1  0  0  0  0
 40 73  1  0  0  0  0
 40 74  1  0  0  0  0
 40 75  1  0  0  0  0
M  CHG  1  30   1
M  END
$$$$
CHEMBL514435
  -OEChem-07121202283D

 75 78  0     1  0  0  0  0  0999 V2000
   -0.0187    1.5258    0.0104 C   0  0  0  0  0  0  0  0  0  0  0  0
    0.0021   -0.0041    0.0020 C   0  0  0  0  0  0  0  0  0  0  0  0
    0.7074   -0.4901   -1.2379 C   0  0  0  0  0  0  0  0  0  0  0  0
    0.1284   -0.7590   -2.4589 C   0  0  0  0  0  0  0  0  0  0  0  0
    1.2538   -1.1974   -3.3075 C   0  0  0  0  0  0  0  0  0  0  0  0
    0.9425   -1.5586   -4.6886 C   0  0  0  0  0  0  0  0  0  0  0  0
    1.9099   -1.9721   -5.5391 O   0  5  0  0  0  0  0  0  0  0  0  0
   -0.3172   -1.4677   -5.0777 N   0  0  0  0  0  0  0  0  0  0  0  0
   -1.2880   -1.0631   -4.2574 C   0  0  0  0  0  0  0  0  0  0  0  0
   -1.0976   -0.7196   -3.0013 N   0  0  0  0  0  0  0  0  0  0  0  0
   -2.6671   -0.9965   -4.7938 C   0  0  0  0  0  0  0  0  0  0  0  0
   -3.7246   -0.5748   -3.9844 C   0  0  0  0  0  0  0  0  0  0  0  0
   -4.9955   -0.5299   -4.5327 C   0  0  0  0  0  0  0  0  0  0  0  0
   -5.1794   -0.8999   -5.8519 C   0  0  0  0  0  0  0  0  0  0  0  0
   -4.1650   -1.2949   -6.5972 N   0  0  0  0  0  0  0  0  0  0  0  0
   -2.9324   -1.3497   -6.1228 C   0  0  0  0  0  0  0  0  0  0  0  0
   -1.9191   -1.7558   -6.9265 O   0  0  0  0  0  0  0  0  0  0  0  0
   -2.2566   -2.1019   -8.2713 C   0  0  2  0  0  0  0  0  0  0  0  0
   -3.1163   -1.5141   -8.5929 H   0  0  0  0  0  0  0  0  0  0  0  0
   -2.6009   -3.5909   -8.3436 C   0  0  0  0  0  0  0  0  0  0  0  0
   -1.0667   -1.8085   -9.1873 C   0  0  0  0  0  0  0  0  0  0  0  0
    0.0244   -2.6632   -8.8394 O   0  0  0  0  0  0  0  0  0  0  0  0
    1.1925   -2.4693   -9.6392 C   0  0  0  0  0  0  0  0  0  0  0  0
   -6.3662   -0.0063   -3.5572 S   0  0  0  0  0  0  0  0  0  0  0  0
   -7.5263   -0.5755   -4.1482 O   0  0  0  0  0  0  0  0  0  0  0  0
   -6.0109   -0.2368   -2.2007 O   0  0  0  0  0  0  0  0  0  0  0  0
   -6.4986    1.6343   -3.7395 N   0  0  0  0  0  0  0  0  0  0  0  0
   -5.7861    2.5539   -2.8394 C   0  0  0  0  0  0  0  0  0  0  0  0
   -5.0085    3.5632   -3.6907 C   0  0  0  0  0  0  0  0  0  0  0  0
   -5.9260    4.2089   -4.6390 N   0  0  0  0  0  0  0  0  0  0  0  0
   -6.4933    3.2335   -5.5796 C   0  0  0  0  0  0  0  0  0  0  0  0
   -7.3269    2.2106   -4.8095 C   0  0  0  0  0  0  0  0  0  0  0  0
   -5.2582    5.3039   -5.3551 C   0  0  0  0  0  0  0  0  0  0  0  0
   -6.2962    6.1068   -6.1417 C   0  0  0  0  0  0  0  0  0  0  0  0
    2.3234   -1.1468   -2.5475 N   0  0  0  0  0  0  0  0  0  0  0  0
    2.0236   -0.7385   -1.3653 N   0  0  0  0  0  0  0  0  0  0  0  0
    2.9983   -0.5688   -0.2848 C   0  0  0  0  0  0  0  0  0  0  0  0
    3.1197   -1.8750    0.5025 C   0  0  0  0  0  0  0  0  0  0  0  0
    4.0704   -1.7094    1.5564 O   0  0  0  0  0  0  0  0  0  0  0  0
    4.2598   -2.8777    2.3572 C   0  0  0  0  0  0  0  0  0  0  0  0
    1.0039    1.9031    0.0027 H   0  0  0  0  0  0  0  0  0  0  0  0
   -0.5459    1.8868   -0.8726 H   0  0  0  0  0  0  0  0  0  0  0  0
   -0.5289    1.8773    0.9072 H   0  0  0  0  0  0  0  0  0  0  0  0
    0.5293   -0.3651    0.8851 H   0  0  0  0  0  0  0  0  0  0  0  0
   -1.0205   -0.3814    0.0098 H   0  0  0  0  0  0  0  0  0  0  0  0
   -3.5553   -0.2911   -2.9562 H   0  0  0  0  0  0  0  0  0  0  0  0
   -6.1705   -0.8652   -6.2796 H   0  0  0  0  0  0  0  0  0  0  0  0
   -3.4486   -3.7999   -7.6910 H   0  0  0  0  0  0  0  0  0  0  0  0
   -2.8583   -3.8548   -9.3694 H   0  0  0  0  0  0  0  0  0  0  0  0
   -1.7412   -4.1787   -8.0220 H   0  0  0  0  0  0  0  0  0  0  0  0
   -1.3530   -1.9882  -10.2236 H   0  0  0  0  0  0  0  0  0  0  0  0
   -0.7651   -0.7678   -9.0690 H   0  0  0  0  0  0  0  0  0  0  0  0
    0.9532   -2.6627  -10.6849 H   0  0  0  0  0  0  0  0  0  0  0  0
    1.5411   -1.4423   -9.5303 H   0  0  0  0  0  0  0  0  0  0  0  0
    1.9744   -3.1549   -9.3126 H   0  0  0  0  0  0  0  0  0  0  0  0
   -6.5042    3.0810   -2.2112 H   0  0  0  0  0  0  0  0  0  0  0  0
   -5.0928    1.9908   -2.2146 H   0  0  0  0  0  0  0  0  0  0  0  0
   -4.5637    4.3189   -3.0431 H   0  0  0  0  0  0  0  0  0  0  0  0
   -4.2221    3.0460   -4.2403 H   0  0  0  0  0  0  0  0  0  0  0  0
   -7.1254    3.7500   -6.3020 H   0  0  0  0  0  0  0  0  0  0  0  0
   -5.6862    2.7209   -6.1029 H   0  0  0  0  0  0  0  0  0  0  0  0
   -7.6518    1.4206   -5.4867 H   0  0  0  0  0  0  0  0  0  0  0  0
   -8.1960    2.7040   -4.3744 H   0  0  0  0  0  0  0  0  0  0  0  0
   -4.7609    5.9570   -4.6380 H   0  0  0  0  0  0  0  0  0  0  0  0
   -4.5204    4.8913   -6.0432 H   0  0  0  0  0  0  0  0  0  0  0  0
   -7.0340    6.5194   -5.4536 H   0  0  0  0  0  0  0  0  0  0  0  0
   -5.8007    6.9193   -6.6730 H   0  0  0  0  0  0  0  0  0  0  0  0
   -6.7935    5.4537   -6.8588 H   0  0  0  0  0  0  0  0  0  0  0  0
    3.9684   -0.3083   -0.7082 H   0  0  0  0  0  0  0  0  0  0  0  0
    2.6670    0.2277    0.3816 H   0  0  0  0  0  0  0  0  0  0  0  0
    2.1496   -2.1355    0.9259 H   0  0  0  0  0  0  0  0  0  0  0  0
    3.4510   -2.6714   -0.1638 H   0  0  0  0  0  0  0  0  0  0  0  0
    4.6148   -3.6949    1.7293 H   0  0  0  0  0  0  0  0  0  0  0  0
    4.9958   -2.6703    3.1340 H   0  0  0  0  0  0  0  0  0  0  0  0
    3.3135   -3.1590    2.8191 H   0  0  0  0  0  0  0  0  0  0  0  0
  1  2  1  0  0  0  0
  1 41  1  0  0  0  0
  1 42  1  0  0  0  0
  1 43  1  0  0  0  0
  2  3  1  0  0  0  0
  2 44  1  0  0  0  0
  2 45  1  0  0  0  0
  3 36  1  0  0  0  0
  3  4  2  0  0  0  0
  4 10  1  0  0  0  0
  4  5  1  0  0  0  0
  5  6  1  0  0  0  0
  5 35  2  0  0  0  0
  6  7  1  0  0  0  0
  6  8  2  0  0  0  0
  8  9  1  0  0  0  0
  9 10  2  0  0  0  0
  9 11  1  0  0  0  0
 11 16  2  0  0  0  0
 11 12  1  0  0  0  0
 12 13  2  0  0  0  0
 12 46  1  0  0  0  0
 13 14  1  0  0  0  0
 13 24  1  0  0  0  0
 14 15  2  0  0  0  0
 14 47  1  0  0  0  0
 15 16  1  0  0  0  0
 16 17  1  0  0  0  0
 17 18  1  0  0  0  0
 18 19  1  0  0  0  0
 18 20  1  0  0  0  0
 18 21  1  0  0  0  0
 20 48  1  0  0  0  0
 20 49  1  0  0  0  0
 20 50  1  0  0  0  0
 21 22  1  0  0  0  0
 21 51  1  0  0  0  0
 21 52  1  0  0  0  0
 22 23  1  0  0  0  0
 23 53  1  0  0  0  0
 23 54  1  0  0  0  0
 23 55  1  0  0  0  0
 24 25  2  0  0  0  0
 24 26  2  0  0  0  0
 24 27  1  0  0  0  0
 27 32  1  0  0  0  0
 27 28  1  0  0  0  0
 28 29  1  0  0  0  0
 28 56  1  0  0  0  0
 28 57  1  0  0  0  0
 29 30  1  0  0  0  0
 29 58  1  0  0  0  0
 29 59  1  0  0  0  0
 30 31  1  0  0  0  0
 30 33  1  0  0  0  0
 31 32  1  0  0  0  0
 31 60  1  0  0  0  0
 31 61  1  0  0  0  0
 32 62  1  0  0  0  0
 32 63  1  0  0  0  0
 33 34  1  0  0  0  0
 33 64  1  0  0  0  0
 33 65  1  0  0  0  0
 34 66  1  0  0  0  0
 34 67  1  0  0  0  0
 34 68  1  0  0  0  0
 35 36  1  0  0  0  0
 36 37  1  0  0  0  0
 37 38  1  0  0  0  0
 37 69  1  0  0  0  0
 37 70  1  0  0  0  0
 38 39  1  0  0  0  0
 38 71  1  0  0  0  0
 38 72  1  0  0  0  0
 39 40  1  0  0  0  0
 40 73  1  0  0  0  0
 40 74  1  0  0  0  0
 40 75  1  0  0  0  0
M  CHG  1   7  -1
M  END
$$$$
CHEMBL779
  -OEChem-07121202283D

 48 53  0     1  0  0  0  0  0999 V2000
    0.1971    1.4693   -0.0381 C   0  0  0  0  0  0  0  0  0  0  0  0
    0.1624    0.0047   -0.0349 N   0  0  0  0  0  0  0  0  0  0  0  0
    0.1593   -0.6830   -1.3153 C   0  0  0  0  0  0  0  0  0  0  0  0
    0.1968   -2.1680   -1.1556 C   0  0  0  0  0  0  0  0  0  0  0  0
    0.2214   -2.8446   -2.1619 O   0  0  0  0  0  0  0  0  0  0  0  0
    0.2055   -2.8003    0.0198 N   0  0  0  0  0  0  0  0  0  0  0  0
    0.0958   -2.1051    1.3015 C   0  0  1  0  0  0  0  0  0  0  0  0
    0.9317   -2.4015    1.9352 H   0  0  0  0  0  0  0  0  0  0  0  0
    0.1408   -0.6198    1.1410 C   0  0  0  0  0  0  0  0  0  0  0  0
    0.1544    0.0599    2.1454 O   0  0  0  0  0  0  0  0  0  0  0  0
   -1.2150   -2.5155    1.9871 C   0  0  0  0  0  0  0  0  0  0  0  0
   -1.3632   -4.0127    1.8945 C   0  0  0  0  0  0  0  0  0  0  0  0
   -2.2230   -4.8804    2.6736 C   0  0  0  0  0  0  0  0  0  0  0  0
   -3.1375   -4.6335    3.7021 C   0  0  0  0  0  0  0  0  0  0  0  0
   -3.7920   -5.7215    4.2248 C   0  0  0  0  0  0  0  0  0  0  0  0
   -3.5654   -7.0080    3.7636 C   0  0  0  0  0  0  0  0  0  0  0  0
   -2.6672   -7.2807    2.7464 C   0  0  0  0  0  0  0  0  0  0  0  0
   -1.9885   -6.1954    2.1961 C   0  0  0  0  0  0  0  0  0  0  0  0
   -1.0557   -6.1068    1.2031 N   0  0  0  0  0  0  0  0  0  0  0  0
   -0.7080   -6.8568    0.6956 H   0  0  0  0  0  0  0  0  0  0  0  0
   -0.6852   -4.7995    1.0312 C   0  0  0  0  0  0  0  0  0  0  0  0
    0.3293   -4.2733    0.0414 C   0  0  1  0  0  0  0  0  0  0  0  0
    1.3341   -4.5559    0.3556 H   0  0  0  0  0  0  0  0  0  0  0  0
    0.0443   -4.8312   -1.3292 C   0  0  0  0  0  0  0  0  0  0  0  0
    1.0570   -5.4325   -2.0534 C   0  0  0  0  0  0  0  0  0  0  0  0
    0.8004   -5.9461   -3.3108 C   0  0  0  0  0  0  0  0  0  0  0  0
   -0.4734   -5.8589   -3.8488 C   0  0  0  0  0  0  0  0  0  0  0  0
   -1.4934   -5.2531   -3.1194 C   0  0  0  0  0  0  0  0  0  0  0  0
   -1.2303   -4.7456   -1.8573 C   0  0  0  0  0  0  0  0  0  0  0  0
   -2.6405   -5.2919   -3.8582 O   0  0  0  0  0  0  0  0  0  0  0  0
   -2.2190   -5.5599   -5.2087 C   0  0  0  0  0  0  0  0  0  0  0  0
   -0.9814   -6.2773   -5.0447 O   0  0  0  0  0  0  0  0  0  0  0  0
    1.2331    1.8082   -0.0330 H   0  0  0  0  0  0  0  0  0  0  0  0
   -0.3029    1.8426   -0.9318 H   0  0  0  0  0  0  0  0  0  0  0  0
   -0.3130    1.8468    0.8482 H   0  0  0  0  0  0  0  0  0  0  0  0
   -0.7424   -0.4084   -1.8626 H   0  0  0  0  0  0  0  0  0  0  0  0
    1.0302   -0.3665   -1.8893 H   0  0  0  0  0  0  0  0  0  0  0  0
   -1.1892   -2.2151    3.0345 H   0  0  0  0  0  0  0  0  0  0  0  0
   -2.0552   -2.0336    1.4872 H   0  0  0  0  0  0  0  0  0  0  0  0
   -3.3202   -3.6340    4.0684 H   0  0  0  0  0  0  0  0  0  0  0  0
   -4.5058   -5.5696    5.0209 H   0  0  0  0  0  0  0  0  0  0  0  0
   -4.1079   -7.8263    4.2135 H   0  0  0  0  0  0  0  0  0  0  0  0
   -2.5005   -8.2883    2.3951 H   0  0  0  0  0  0  0  0  0  0  0  0
    2.0507   -5.5007   -1.6359 H   0  0  0  0  0  0  0  0  0  0  0  0
    1.5933   -6.4154   -3.8743 H   0  0  0  0  0  0  0  0  0  0  0  0
   -2.0205   -4.2793   -1.2875 H   0  0  0  0  0  0  0  0  0  0  0  0
   -2.9544   -6.1777   -5.7240 H   0  0  0  0  0  0  0  0  0  0  0  0
   -2.0530   -4.6285   -5.7501 H   0  0  0  0  0  0  0  0  0  0  0  0
  1  2  1  0  0  0  0
  1 33  1  0  0  0  0
  1 34  1  0  0  0  0
  1 35  1  0  0  0  0
  2  9  1  0  0  0  0
  2  3  1  0  0  0  0
  3  4  1  0  0  0  0
  3 36  1  0  0  0  0
  3 37  1  0  0  0  0
  4  5  2  0  0  0  0
  4  6  1  0  0  0  0
  6 22  1  0  0  0  0
  6  7  1  0  0  0  0
  7  8  1  0  0  0  0
  7  9  1  0  0  0  0
  7 11  1  0  0  0  0
  9 10  2  0  0  0  0
 11 12  1  0  0  0  0
 11 38  1  0  0  0  0
 11 39  1  0  0  0  0
 12 21  2  0  0  0  0
 12 13  1  0  0  0  0
 13 18  2  0  0  0  0
 13 14  1  0  0  0  0
 14 15  2  0  0  0  0
 14 40  1  0  0  0  0
 15 16  1  0  0  0  0
 15 41  1  0  0  0  0
 16 17  2  0  0  0  0
 16 42  1  0  0  0  0
 17 18  1  0  0  0  0
 17 43  1  0  0  0  0
 18 19  1  0  0  0  0
 19 20  1  0  0  0  0
 19 21  1  0  0  0  0
 21 22  1  0  0  0  0
 22 23  1  0  0  0  0
 22 24  1  0  0  0  0
 24 29  2  0  0  0  0
 24 25  1  0  0  0  0
 25 26  2  0  0  0  0
 25 44  1  0  0  0  0
 26 27  1  0  0  0  0
 26 45  1  0  0  0  0
 27 32  1  0  0  0  0
 27 28  2  0  0  0  0
 28 29  1  0  0  0  0
 28 30  1  0  0  0  0
 29 46  1  0  0  0  0
 30 31  1  0  0  0  0
 31 32  1  0  0  0  0
 31 47  1  0  0  0  0
 31 48  1  0  0  0  0
M  END
$$$$
CHEMBL305206
  -OEChem-07121202283D

 67 70  0     0  0  0  0  0  0999 V2000
   -0.0173    1.4248    0.0099 C   0  0  0  0  0  0  0  0  0  0  0  0
    0.0021   -0.0041    0.0020 O   0  0  0  0  0  0  0  0  0  0  0  0
    0.6062   -0.6075   -1.0565 C   0  0  0  0  0  0  0  0  0  0  0  0
    1.1711    0.1595   -2.0591 C   0  0  0  0  0  0  0  0  0  0  0  0
    1.7913   -0.4608   -3.1457 C   0  0  0  0  0  0  0  0  0  0  0  0
    1.8394   -1.8546   -3.2170 C   0  0  0  0  0  0  0  0  0  0  0  0
    1.2731   -2.6172   -2.2117 C   0  0  0  0  0  0  0  0  0  0  0  0
    0.6605   -1.9965   -1.1269 C   0  0  0  0  0  0  0  0  0  0  0  0
    0.1097   -2.7485   -0.1368 O   0  0  0  0  0  0  0  0  0  0  0  0
   -1.2619   -3.1189   -0.2902 C   0  0  0  0  0  0  0  0  0  0  0  0
    1.3197   -3.9746   -2.2805 O   0  0  0  0  0  0  0  0  0  0  0  0
    1.9689   -4.5446   -3.4188 C   0  0  0  0  0  0  0  0  0  0  0  0
    2.3952    0.3565   -4.2188 C   0  0  0  0  0  0  0  0  0  0  0  0
    1.8451    0.3211   -5.5823 C   0  0  0  0  0  0  0  0  0  0  0  0
    0.7483   -0.4741   -5.9058 C   0  0  0  0  0  0  0  0  0  0  0  0
    0.2637   -0.4764   -7.2007 C   0  0  0  0  0  0  0  0  0  0  0  0
    0.8671    0.3128   -8.1849 C   0  0  0  0  0  0  0  0  0  0  0  0
    1.9557    1.1064   -7.8779 C   0  0  0  0  0  0  0  0  0  0  0  0
    2.4551    1.1193   -6.5764 C   0  0  0  0  0  0  0  0  0  0  0  0
    3.6099    1.9485   -6.2064 C   0  0  0  0  0  0  0  0  0  0  0  0
    4.1531    2.6454   -7.0442 O   0  0  0  0  0  0  0  0  0  0  0  0
    4.0668    1.9375   -4.9404 N   0  0  0  0  0  0  0  0  0  0  0  0
    3.4811    1.1689   -3.9537 C   0  0  0  0  0  0  0  0  0  0  0  0
    4.0284    1.2113   -2.5941 C   0  0  0  0  0  0  0  0  0  0  0  0
    4.9838    1.9213   -2.3450 O   0  0  0  0  0  0  0  0  0  0  0  0
    3.4720    0.4625   -1.6194 O   0  0  0  0  0  0  0  0  0  0  0  0
    4.0563    0.5529   -0.3184 C   0  0  0  0  0  0  0  0  0  0  0  0
    5.1420    2.7166   -4.6195 N   0  0  0  0  0  0  0  0  0  0  0  0
    4.8289    4.1428   -4.7906 C   0  0  0  0  0  0  0  0  0  0  0  0
    6.0379    4.9798   -4.3644 C   0  0  0  0  0  0  0  0  0  0  0  0
    7.1802    4.5810   -5.1269 O   0  0  0  0  0  0  0  0  0  0  0  0
    7.5139    3.1978   -4.9833 C   0  0  0  0  0  0  0  0  0  0  0  0
    6.3199    2.3427   -5.4158 C   0  0  0  0  0  0  0  0  0  0  0  0
    0.3793    0.2986   -9.4532 O   0  0  0  0  0  0  0  0  0  0  0  0
    1.0404    1.1270  -10.4118 C   0  0  0  0  0  0  0  0  0  0  0  0
   -0.8058   -1.2508   -7.5192 O   0  0  0  0  0  0  0  0  0  0  0  0
   -1.3758   -2.0336   -6.4684 C   0  0  0  0  0  0  0  0  0  0  0  0
    1.0053    1.8021    0.0021 H   0  0  0  0  0  0  0  0  0  0  0  0
   -0.5445    1.7859   -0.8732 H   0  0  0  0  0  0  0  0  0  0  0  0
   -0.5275    1.7763    0.9067 H   0  0  0  0  0  0  0  0  0  0  0  0
    1.1322    1.2373   -2.0019 H   0  0  0  0  0  0  0  0  0  0  0  0
    2.3182   -2.3366   -4.0565 H   0  0  0  0  0  0  0  0  0  0  0  0
   -1.5753   -3.7151    0.5668 H   0  0  0  0  0  0  0  0  0  0  0  0
   -1.8761   -2.2205   -0.3518 H   0  0  0  0  0  0  0  0  0  0  0  0
   -1.3806   -3.7035   -1.2024 H   0  0  0  0  0  0  0  0  0  0  0  0
    1.4592   -4.2227   -4.3269 H   0  0  0  0  0  0  0  0  0  0  0  0
    3.0072   -4.2141   -3.4482 H   0  0  0  0  0  0  0  0  0  0  0  0
    1.9356   -5.6319   -3.3494 H   0  0  0  0  0  0  0  0  0  0  0  0
    0.2792   -1.0859   -5.1494 H   0  0  0  0  0  0  0  0  0  0  0  0
    2.4176    1.7134   -8.6425 H   0  0  0  0  0  0  0  0  0  0  0  0
    5.1000    0.2424   -0.3666 H   0  0  0  0  0  0  0  0  0  0  0  0
    3.9995    1.5826    0.0346 H   0  0  0  0  0  0  0  0  0  0  0  0
    3.5151   -0.0973    0.3689 H   0  0  0  0  0  0  0  0  0  0  0  0
    4.5991    4.3420   -5.8373 H   0  0  0  0  0  0  0  0  0  0  0  0
    3.9696    4.4034   -4.1727 H   0  0  0  0  0  0  0  0  0  0  0  0
    5.8312    6.0350   -4.5432 H   0  0  0  0  0  0  0  0  0  0  0  0
    6.2346    4.8214   -3.3041 H   0  0  0  0  0  0  0  0  0  0  0  0
    8.3748    2.9642   -5.6097 H   0  0  0  0  0  0  0  0  0  0  0  0
    7.7536    2.9875   -3.9410 H   0  0  0  0  0  0  0  0  0  0  0  0
    6.5490    1.2894   -5.2542 H   0  0  0  0  0  0  0  0  0  0  0  0
    6.1139    2.5131   -6.4725 H   0  0  0  0  0  0  0  0  0  0  0  0
    0.5522    1.0221  -11.3807 H   0  0  0  0  0  0  0  0  0  0  0  0
    0.9892    2.1671  -10.0899 H   0  0  0  0  0  0  0  0  0  0  0  0
    2.0839    0.8236  -10.4960 H   0  0  0  0  0  0  0  0  0  0  0  0
   -1.7183   -1.3755   -5.6698 H   0  0  0  0  0  0  0  0  0  0  0  0
   -2.2200   -2.6035   -6.8567 H   0  0  0  0  0  0  0  0  0  0  0  0
   -0.6240   -2.7190   -6.0770 H   0  0  0  0  0  0  0  0  0  0  0  0
  1  2  1  0  0  0  0
  1 38  1  0  0  0  0
  1 39  1  0  0  0  0
  1 40  1  0  0  0  0
  2  3  1  0  0  0  0
  3  8  2  0  0  0  0
  3  4  1  0  0  0  0
  4  5  2  0  0  0  0
  4 41  1  0  0  0  0
  5  6  1  0  0  0  0
  5 13  1  0  0  0  0
  6  7  2  0  0  0  0
  6 42  1  0  0  0  0
  7  8  1  0  0  0  0
  7 11  1  0  0  0  0
  8  9  1  0  0  0  0
  9 10  1  0  0  0  0
 10 43  1  0  0  0  0
 10 44  1  0  0  0  0
 10 45  1  0  0  0  0
 11 12  1  0  0  0  0
 12 46  1  0  0  0  0
 12 47  1  0  0  0  0
 12 48  1  0  0  0  0
 13 23  2  0  0  0  0
 13 14  1  0  0  0  0
 14 19  2  0  0  0  0
 14 15  1  0  0  0  0
 15 16  2  0  0  0  0
 15 49  1  0  0  0  0
 16 17  1  0  0  0  0
 16 36  1  0  0  0  0
 17 18  2  0  0  0  0
 17 34  1  0  0  0  0
 18 19  1  0  0  0  0
 18 50  1  0  0  0  0
 19 20  1  0  0  0  0
 20 21  2  0  0  0  0
 20 22  1  0  0  0  0
 22 23  1  0  0  0  0
 22 28  1  0  0  0  0
 23 24  1  0  0  0  0
 24 25  2  0  0  0  0
 24 26  1  0  0  0  0
 26 27  1  0  0  0  0
 27 51  1  0  0  0  0
 27 52  1  0  0  0  0
 27 53  1  0  0  0  0
 28 33  1  0  0  0  0
 28 29  1  0  0  0  0
 29 30  1  0  0  0  0
 29 54  1  0  0  0  0
 29 55  1  0  0  0  0
 30 31  1  0  0  0  0
 30 56  1  0  0  0  0
 30 57  1  0  0  0  0
 31 32  1  0  0  0  0
 32 33  1  0  0  0  0
 32 58  1  0  0  0  0
 32 59  1  0  0  0  0
 33 60  1  0  0  0  0
 33 61  1  0  0  0  0
 34 35  1  0  0  0  0
 35 62  1  0  0  0  0
 35 63  1  0  0  0  0
 35 64  1  0  0  0  0
 36 37  1  0  0  0  0
 37 65  1  0  0  0  0
 37 66  1  0  0  0  0
 37 67  1  0  0  0  0
M  END
$$$$
CHEMBL540539
  -OEChem-07121202283D

 72 76  0     0  0  0  0  0  0999 V2000
   -1.2784    3.1122   -1.4027 C   0  0  0  0  0  0  0  0  0  0  0  0
   -1.3026    1.7818   -0.8816 O   0  0  0  0  0  0  0  0  0  0  0  0
   -0.4632    0.8786   -1.4553 C   0  0  0  0  0  0  0  0  0  0  0  0
    0.3669    1.2675   -2.4909 C   0  0  0  0  0  0  0  0  0  0  0  0
    1.2286    0.3396   -3.0796 C   0  0  0  0  0  0  0  0  0  0  0  0
    1.2498   -0.9792   -2.6207 C   0  0  0  0  0  0  0  0  0  0  0  0
    0.4177   -1.3631   -1.5848 C   0  0  0  0  0  0  0  0  0  0  0  0
   -0.4361   -0.4350   -0.9960 C   0  0  0  0  0  0  0  0  0  0  0  0
   -1.2493   -0.8136    0.0261 O   0  0  0  0  0  0  0  0  0  0  0  0
   -2.5446   -1.3056   -0.3235 C   0  0  0  0  0  0  0  0  0  0  0  0
    0.4375   -2.6474   -1.1378 O   0  0  0  0  0  0  0  0  0  0  0  0
    1.3419   -3.5454   -1.7841 C   0  0  0  0  0  0  0  0  0  0  0  0
    2.1163    0.7524   -4.1866 C   0  0  0  0  0  0  0  0  0  0  0  0
    1.9390    0.1900   -5.5333 C   0  0  0  0  0  0  0  0  0  0  0  0
    0.9387   -0.7412   -5.8106 C   0  0  0  0  0  0  0  0  0  0  0  0
    0.8082   -1.2419   -7.0867 C   0  0  0  0  0  0  0  0  0  0  0  0
    1.6666   -0.8266   -8.1022 C   0  0  0  0  0  0  0  0  0  0  0  0
    2.6659    0.0968   -7.8458 C   0  0  0  0  0  0  0  0  0  0  0  0
    2.8110    0.6137   -6.5610 C   0  0  0  0  0  0  0  0  0  0  0  0
    3.8564    1.5968   -6.2414 C   0  0  0  0  0  0  0  0  0  0  0  0
    4.6202    1.9783   -7.1094 O   0  0  0  0  0  0  0  0  0  0  0  0
    3.9678    2.0748   -4.9879 N   0  0  0  0  0  0  0  0  0  0  0  0
    3.1214    1.6772   -3.9715 C   0  0  0  0  0  0  0  0  0  0  0  0
    3.2966    2.2447   -2.6314 C   0  0  0  0  0  0  0  0  0  0  0  0
    2.5207    1.9533   -1.7414 O   0  0  0  0  0  0  0  0  0  0  0  0
    4.3187    3.0903   -2.3853 O   0  0  0  0  0  0  0  0  0  0  0  0
    4.4975    3.5156   -1.0328 C   0  0  0  0  0  0  0  0  0  0  0  0
    4.9710    3.0105   -4.7067 C   0  0  0  0  0  0  0  0  0  0  0  0
    6.1858    2.5893   -4.1808 C   0  0  0  0  0  0  0  0  0  0  0  0
    7.1748    3.5114   -3.9040 C   0  0  0  0  0  0  0  0  0  0  0  0
    6.9554    4.8607   -4.1513 C   0  0  0  0  0  0  0  0  0  0  0  0
    5.7405    5.2818   -4.6772 C   0  0  0  0  0  0  0  0  0  0  0  0
    4.7535    4.3591   -4.9590 C   0  0  0  0  0  0  0  0  0  0  0  0
    7.9570    5.7948   -3.8705 N   0  0  0  0  0  0  0  0  0  0  0  0
    1.5223   -1.3323   -9.3546 O   0  0  0  0  0  0  0  0  0  0  0  0
    0.4728   -2.2814   -9.5541 C   0  0  0  0  0  0  0  0  0  0  0  0
    0.4662   -2.7278  -10.9934 C   0  0  0  0  0  0  0  0  0  0  0  0
   -0.2853   -2.0392  -11.9272 C   0  0  0  0  0  0  0  0  0  0  0  0
   -0.2914   -2.4488  -13.2475 C   0  0  0  0  0  0  0  0  0  0  0  0
    0.4544   -3.5466  -13.6341 C   0  0  0  0  0  0  0  0  0  0  0  0
    1.2066   -4.2346  -12.7004 C   0  0  0  0  0  0  0  0  0  0  0  0
    1.2161   -3.8225  -11.3810 C   0  0  0  0  0  0  0  0  0  0  0  0
   -0.2777    3.5289   -1.2888 H   0  0  0  0  0  0  0  0  0  0  0  0
   -1.5461    3.0935   -2.4592 H   0  0  0  0  0  0  0  0  0  0  0  0
   -1.9930    3.7289   -0.8577 H   0  0  0  0  0  0  0  0  0  0  0  0
    0.3484    2.2879   -2.8442 H   0  0  0  0  0  0  0  0  0  0  0  0
    1.9151   -1.6988   -3.0746 H   0  0  0  0  0  0  0  0  0  0  0  0
   -3.0929   -0.5337   -0.8635 H   0  0  0  0  0  0  0  0  0  0  0  0
   -2.4398   -2.1870   -0.9563 H   0  0  0  0  0  0  0  0  0  0  0  0
   -3.0890   -1.5716    0.5826 H   0  0  0  0  0  0  0  0  0  0  0  0
    1.2573   -4.5338   -1.3325 H   0  0  0  0  0  0  0  0  0  0  0  0
    1.0963   -3.6080   -2.8442 H   0  0  0  0  0  0  0  0  0  0  0  0
    2.3621   -3.1793   -1.6685 H   0  0  0  0  0  0  0  0  0  0  0  0
    0.2699   -1.0684   -5.0282 H   0  0  0  0  0  0  0  0  0  0  0  0
    0.0337   -1.9631   -7.3020 H   0  0  0  0  0  0  0  0  0  0  0  0
    3.3285    0.4145   -8.6373 H   0  0  0  0  0  0  0  0  0  0  0  0
    5.3996    4.1230   -0.9591 H   0  0  0  0  0  0  0  0  0  0  0  0
    3.6358    4.1055   -0.7204 H   0  0  0  0  0  0  0  0  0  0  0  0
    4.5935    2.6427   -0.3871 H   0  0  0  0  0  0  0  0  0  0  0  0
    6.3563    1.5404   -3.9882 H   0  0  0  0  0  0  0  0  0  0  0  0
    8.1192    3.1840   -3.4949 H   0  0  0  0  0  0  0  0  0  0  0  0
    5.5698    6.3308   -4.8695 H   0  0  0  0  0  0  0  0  0  0  0  0
    3.8106    4.6859   -5.3720 H   0  0  0  0  0  0  0  0  0  0  0  0
    8.8052    5.5008   -3.5030 H   0  0  0  0  0  0  0  0  0  0  0  0
    7.8038    6.7369   -4.0432 H   0  0  0  0  0  0  0  0  0  0  0  0
    0.6347   -3.1434   -8.9070 H   0  0  0  0  0  0  0  0  0  0  0  0
   -0.4848   -1.8203   -9.3123 H   0  0  0  0  0  0  0  0  0  0  0  0
   -0.8680   -1.1815  -11.6252 H   0  0  0  0  0  0  0  0  0  0  0  0
   -0.8792   -1.9112  -13.9769 H   0  0  0  0  0  0  0  0  0  0  0  0
    0.4491   -3.8670  -14.6654 H   0  0  0  0  0  0  0  0  0  0  0  0
    1.7891   -5.0925  -13.0024 H   0  0  0  0  0  0  0  0  0  0  0  0
    1.8067   -4.3578  -10.6523 H   0  0  0  0  0  0  0  0  0  0  0  0
  1  2  1  0  0  0  0
  1 43  1  0  0  0  0
  1 44  1  0  0  0  0
  1 45  1  0  0  0  0
  2  3  1  0  0  0  0
  3  8  2  0  0  0  0
  3  4  1  0  0  0  0
  4  5  2  0  0  0  0
  4 46  1  0  0  0  0
  5  6  1  0  0  0  0
  5 13  1  0  0  0  0
  6  7  2  0  0  0  0
  6 47  1  0  0  0  0
  7  8  1  0  0  0  0
  7 11  1  0  0  0  0
  8  9  1  0  0  0  0
  9 10  1  0  0  0  0
 10 48  1  0  0  0  0
 10 49  1  0  0  0  0
 10 50  1  0  0  0  0
 11 12  1  0  0  0  0
 12 51  1  0  0  0  0
 12 52  1  0  0  0  0
 12 53  1  0  0  0  0
 13 23  2  0  0  0  0
 13 14  1  0  0  0  0
 14 19  2  0  0  0  0
 14 15  1  0  0  0  0
 15 16  2  0  0  0  0
 15 54  1  0  0  0  0
 16 17  1  0  0  0  0
 16 55  1  0  0  0  0
 17 18  2  0  0  0  0
 17 35  1  0  0  0  0
 18 19  1  0  0  0  0
 18 56  1  0  0  0  0
 19 20  1  0  0  0  0
 20 21  2  0  0  0  0
 20 22  1  0  0  0  0
 22 23  1  0  0  0  0
 22 28  1  0  0  0  0
 23 24  1  0  0  0  0
 24 25  2  0  0  0  0
 24 26  1  0  0  0  0
 26 27  1  0  0  0  0
 27 57  1  0  0  0  0
 27 58  1  0  0  0  0
 27 59  1  0  0  0  0
 28 33  2  0  0  0  0
 28 29  1  0  0  0  0
 29 30  2  0  0  0  0
 29 60  1  0  0  0  0
 30 31  1  0  0  0  0
 30 61  1  0  0  0  0
 31 32  2  0  0  0  0
 31 34  1  0  0  0  0
 32 33  1  0  0  0  0
 32 62  1  0  0  0  0
 33 63  1  0  0  0  0
 34 64  1  0  0  0  0
 34 65  1  0  0  0  0
 35 36  1  0  0  0  0
 36 37  1  0  0  0  0
 36 66  1  0  0  0  0
 36 67  1  0  0  0  0
 37 42  2  0  0  0  0
 37 38  1  0  0  0  0
 38 39  2  0  0  0  0
 38 68  1  0  0  0  0
 39 40  1  0  0  0  0
 39 69  1  0  0  0  0
 40 41  2  0  0  0  0
 40 70  1  0  0  0  0
 41 42  1  0  0  0  0
 41 71  1  0  0  0  0
 42 72  1  0  0  0  0
M  END
$$$$
CHEMBL183370
  -OEChem-07121202283D

 63 66  0     0  0  0  0  0  0999 V2000
   -0.0187    1.5258    0.0104 C   0  0  0  0  0  0  0  0  0  0  0  0
    0.0021   -0.0041    0.0020 C   0  0  0  0  0  0  0  0  0  0  0  0
   -1.4333   -0.5336    0.0129 C   0  0  0  0  0  0  0  0  0  0  0  0
   -1.4134   -1.9985    0.0048 N   0  0  0  0  0  0  0  0  0  0  0  0
   -1.4077   -2.7889   -1.1016 C   0  0  0  0  0  0  0  0  0  0  0  0
   -1.3876   -4.1177   -0.6445 C   0  0  0  0  0  0  0  0  0  0  0  0
   -1.3818   -4.0747    0.7622 C   0  0  0  0  0  0  0  0  0  0  0  0
   -1.3910   -2.8248    1.1353 N   0  0  0  0  0  0  0  0  0  0  0  0
   -1.3614   -5.2692    1.6809 C   0  0  0  0  0  0  0  0  0  0  0  0
   -1.3771   -5.1921   -1.6367 C   0  0  0  0  0  0  0  0  0  0  0  0
   -1.3874   -4.8401   -2.9436 N   0  0  0  0  0  0  0  0  0  0  0  0
   -1.4070   -3.5204   -3.2993 C   0  0  0  0  0  0  0  0  0  0  0  0
   -1.4170   -2.5482   -2.4185 N   0  0  0  0  0  0  0  0  0  0  0  0
   -1.4178   -3.1750   -4.7336 C   0  0  0  0  0  0  0  0  0  0  0  0
   -1.4138   -4.1843   -5.6993 C   0  0  0  0  0  0  0  0  0  0  0  0
   -1.4239   -3.8549   -7.0376 C   0  0  0  0  0  0  0  0  0  0  0  0
   -1.4375   -2.5267   -7.4301 C   0  0  0  0  0  0  0  0  0  0  0  0
   -1.4411   -1.5190   -6.4855 C   0  0  0  0  0  0  0  0  0  0  0  0
   -1.4379   -1.8324   -5.1350 C   0  0  0  0  0  0  0  0  0  0  0  0
   -1.4475   -0.8434   -4.2057 O   0  0  0  0  0  0  0  0  0  0  0  0
   -1.4680    0.5011   -4.6895 C   0  0  0  0  0  0  0  0  0  0  0  0
   -1.4763    1.4693   -3.5048 C   0  0  0  0  0  0  0  0  0  0  0  0
   -1.4189   -5.1292   -8.2546 S   0  0  0  0  0  0  0  0  0  0  0  0
   -0.8795   -4.5578   -9.4386 O   0  0  0  0  0  0  0  0  0  0  0  0
   -0.8544   -6.2779   -7.6374 O   0  0  0  0  0  0  0  0  0  0  0  0
   -2.9994   -5.4975   -8.5843 N   0  0  0  0  0  0  0  0  0  0  0  0
   -3.7089   -6.5329   -7.8178 C   0  0  0  0  0  0  0  0  0  0  0  0
   -5.0317   -5.9453   -7.3145 C   0  0  0  0  0  0  0  0  0  0  0  0
   -5.7806   -5.3903   -8.4499 N   0  0  0  0  0  0  0  0  0  0  0  0
   -5.0526   -4.2786   -9.0761 C   0  0  0  0  0  0  0  0  0  0  0  0
   -3.7325   -4.7937   -9.6475 C   0  0  0  0  0  0  0  0  0  0  0  0
   -7.1273   -4.9720   -8.0382 C   0  0  0  0  0  0  0  0  0  0  0  0
   -1.3593   -6.3625   -1.2989 O   0  0  0  0  0  0  0  0  0  0  0  0
    1.0039    1.9031    0.0027 H   0  0  0  0  0  0  0  0  0  0  0  0
   -0.5459    1.8868   -0.8726 H   0  0  0  0  0  0  0  0  0  0  0  0
   -0.5289    1.8773    0.9072 H   0  0  0  0  0  0  0  0  0  0  0  0
    0.5123   -0.3556   -0.8948 H   0  0  0  0  0  0  0  0  0  0  0  0
    0.5293   -0.3651    0.8851 H   0  0  0  0  0  0  0  0  0  0  0  0
   -1.9435   -0.1821    0.9097 H   0  0  0  0  0  0  0  0  0  0  0  0
   -1.9605   -0.1726   -0.8702 H   0  0  0  0  0  0  0  0  0  0  0  0
   -0.3290   -5.5432    1.8977 H   0  0  0  0  0  0  0  0  0  0  0  0
   -1.8745   -5.0216    2.6102 H   0  0  0  0  0  0  0  0  0  0  0  0
   -1.8661   -6.1067    1.1992 H   0  0  0  0  0  0  0  0  0  0  0  0
   -1.4025   -5.2213   -5.3976 H   0  0  0  0  0  0  0  0  0  0  0  0
   -1.4450   -2.2774   -8.4809 H   0  0  0  0  0  0  0  0  0  0  0  0
   -1.4510   -0.4857   -6.7993 H   0  0  0  0  0  0  0  0  0  0  0  0
   -0.5829    0.6812   -5.2997 H   0  0  0  0  0  0  0  0  0  0  0  0
   -2.3627    0.6568   -5.2923 H   0  0  0  0  0  0  0  0  0  0  0  0
   -1.4919    2.4948   -3.8738 H   0  0  0  0  0  0  0  0  0  0  0  0
   -2.3613    1.2892   -2.8946 H   0  0  0  0  0  0  0  0  0  0  0  0
   -0.5815    1.3136   -2.9021 H   0  0  0  0  0  0  0  0  0  0  0  0
   -3.9100   -7.3905   -8.4598 H   0  0  0  0  0  0  0  0  0  0  0  0
   -3.0993   -6.8424   -6.9689 H   0  0  0  0  0  0  0  0  0  0  0  0
   -5.6206   -6.7296   -6.8389 H   0  0  0  0  0  0  0  0  0  0  0  0
   -4.8272   -5.1549   -6.5924 H   0  0  0  0  0  0  0  0  0  0  0  0
   -5.6566   -3.8542   -9.8781 H   0  0  0  0  0  0  0  0  0  0  0  0
   -4.8478   -3.5114   -8.3294 H   0  0  0  0  0  0  0  0  0  0  0  0
   -3.1385   -3.9538  -10.0077 H   0  0  0  0  0  0  0  0  0  0  0  0
   -3.9359   -5.4809  -10.4687 H   0  0  0  0  0  0  0  0  0  0  0  0
   -7.0499   -4.2088   -7.2639 H   0  0  0  0  0  0  0  0  0  0  0  0
   -7.6600   -4.5650   -8.8977 H   0  0  0  0  0  0  0  0  0  0  0  0
   -7.6713   -5.8320   -7.6476 H   0  0  0  0  0  0  0  0  0  0  0  0
   -1.3806   -5.5260   -3.6294 H   0  0  0  0  0  0  0  0  0  0  0  0
  1  2  1  0  0  0  0
  1 34  1  0  0  0  0
  1 35  1  0  0  0  0
  1 36  1  0  0  0  0
  2  3  1  0  0  0  0
  2 37  1  0  0  0  0
  2 38  1  0  0  0  0
  3  4  1  0  0  0  0
  3 39  1  0  0  0  0
  3 40  1  0  0  0  0
  4  8  1  0  0  0  0
  4  5  1  0  0  0  0
  5 13  1  0  0  0  0
  5  6  2  0  0  0  0
  6  7  1  0  0  0  0
  6 10  1  0  0  0  0
  7  8  2  0  0  0  0
  7  9  1  0  0  0  0
  9 41  1  0  0  0  0
  9 42  1  0  0  0  0
  9 43  1  0  0  0  0
 10 11  1  0  0  0  0
 10 33  2  0  0  0  0
 11 12  1  0  0  0  0
 11 63  1  0  0  0  0
 12 13  2  0  0  0  0
 12 14  1  0  0  0  0
 14 19  2  0  0  0  0
 14 15  1  0  0  0  0
 15 16  2  0  0  0  0
 15 44  1  0  0  0  0
 16 17  1  0  0  0  0
 16 23  1  0  0  0  0
 17 18  2  0  0  0  0
 17 45  1  0  0  0  0
 18 19  1  0  0  0  0
 18 46  1  0  0  0  0
 19 20  1  0  0  0  0
 20 21  1  0  0  0  0
 21 22  1  0  0  0  0
 21 47  1  0  0  0  0
 21 48  1  0  0  0  0
 22 49  1  0  0  0  0
 22 50  1  0  0  0  0
 22 51  1  0  0  0  0
 23 24  2  0  0  0  0
 23 25  2  0  0  0  0
 23 26  1  0  0  0  0
 26 31  1  0  0  0  0
 26 27  1  0  0  0  0
 27 28  1  0  0  0  0
 27 52  1  0  0  0  0
 27 53  1  0  0  0  0
 28 29  1  0  0  0  0
 28 54  1  0  0  0  0
 28 55  1  0  0  0  0
 29 30  1  0  0  0  0
 29 32  1  0  0  0  0
 30 31  1  0  0  0  0
 30 56  1  0  0  0  0
 30 57  1  0  0  0  0
 31 58  1  0  0  0  0
 31 59  1  0  0  0  0
 32 60  1  0  0  0  0
 32 61  1  0  0  0  0
 32 62  1  0  0  0  0
M  END
$$$$
CHEMBL183370
  -OEChem-07121202283D

 64 67  0     0  0  0  0  0  0999 V2000
   -0.0187    1.5258    0.0104 C   0  0  0  0  0  0  0  0  0  0  0  0
    0.0021   -0.0041    0.0020 C   0  0  0  0  0  0  0  0  0  0  0  0
    0.7182   -0.4975   -1.2568 C   0  0  0  0  0  0  0  0  0  0  0  0
    0.7381   -1.9623   -1.2648 N   0  0  0  0  0  0  0  0  0  0  0  0
    1.7058   -2.7487   -0.7225 C   0  0  0  0  0  0  0  0  0  0  0  0
    1.3205   -4.0792   -0.9602 C   0  0  0  0  0  0  0  0  0  0  0  0
    0.0987   -4.0413   -1.6576 C   0  0  0  0  0  0  0  0  0  0  0  0
   -0.2393   -2.7929   -1.8271 N   0  0  0  0  0  0  0  0  0  0  0  0
   -0.6885   -5.2391   -2.1232 C   0  0  0  0  0  0  0  0  0  0  0  0
    2.1913   -5.1501   -0.4765 C   0  0  0  0  0  0  0  0  0  0  0  0
    3.3228   -4.7934    0.1749 N   0  0  0  0  0  0  0  0  0  0  0  0
    3.6201   -3.4724    0.3622 C   0  0  0  0  0  0  0  0  0  0  0  0
    2.8471   -2.5033   -0.0673 N   0  0  0  0  0  0  0  0  0  0  0  0
    4.8623   -3.1217    1.0769 C   0  0  0  0  0  0  0  0  0  0  0  0
    5.7123   -4.1275    1.5429 C   0  0  0  0  0  0  0  0  0  0  0  0
    6.8713   -3.7933    2.2099 C   0  0  0  0  0  0  0  0  0  0  0  0
    7.1973   -2.4637    2.4209 C   0  0  0  0  0  0  0  0  0  0  0  0
    6.3653   -1.4597    1.9657 C   0  0  0  0  0  0  0  0  0  0  0  0
    5.1990   -1.7778    1.2870 C   0  0  0  0  0  0  0  0  0  0  0  0
    4.3836   -0.7920    0.8338 O   0  0  0  0  0  0  0  0  0  0  0  0
    4.7919    0.5542    1.0849 C   0  0  0  0  0  0  0  0  0  0  0  0
    3.7550    1.5182    0.5048 C   0  0  0  0  0  0  0  0  0  0  0  0
    7.9425   -5.0630    2.7972 S   0  0  0  0  0  0  0  0  0  0  0  0
    8.6895   -4.5012    3.8676 O   0  0  0  0  0  0  0  0  0  0  0  0
    7.1439   -6.2277    2.9544 O   0  0  0  0  0  0  0  0  0  0  0  0
    9.0237   -5.3904    1.5863 N   0  0  0  0  0  0  0  0  0  0  0  0
    8.7318   -6.4102    0.5670 C   0  0  0  0  0  0  0  0  0  0  0  0
    8.9669   -5.7953   -0.8166 C   0  0  0  0  0  0  0  0  0  0  0  0
   10.3266   -5.2448   -0.8820 N   0  3  0  0  0  0  0  0  0  0  0  0
   10.4638   -4.1365    0.0714 C   0  0  0  0  0  0  0  0  0  0  0  0
   10.3005   -4.6653    1.4958 C   0  0  0  0  0  0  0  0  0  0  0  0
   10.5895   -4.7543   -2.2415 C   0  0  0  0  0  0  0  0  0  0  0  0
    1.9080   -6.3217   -0.6534 O   0  0  0  0  0  0  0  0  0  0  0  0
    1.0039    1.9031    0.0027 H   0  0  0  0  0  0  0  0  0  0  0  0
   -0.5459    1.8868   -0.8726 H   0  0  0  0  0  0  0  0  0  0  0  0
   -0.5289    1.8773    0.9072 H   0  0  0  0  0  0  0  0  0  0  0  0
    0.5293   -0.3651    0.8851 H   0  0  0  0  0  0  0  0  0  0  0  0
   -1.0205   -0.3814    0.0098 H   0  0  0  0  0  0  0  0  0  0  0  0
    0.1910   -0.1364   -2.1398 H   0  0  0  0  0  0  0  0  0  0  0  0
    1.7408   -0.1202   -1.2645 H   0  0  0  0  0  0  0  0  0  0  0  0
   -1.3880   -5.5397   -1.3431 H   0  0  0  0  0  0  0  0  0  0  0  0
   -1.2408   -4.9820   -3.0270 H   0  0  0  0  0  0  0  0  0  0  0  0
   -0.0061   -6.0620   -2.3361 H   0  0  0  0  0  0  0  0  0  0  0  0
    5.4616   -5.1654    1.3812 H   0  0  0  0  0  0  0  0  0  0  0  0
    8.1072   -2.2107    2.9448 H   0  0  0  0  0  0  0  0  0  0  0  0
    6.6260   -0.4253    2.1346 H   0  0  0  0  0  0  0  0  0  0  0  0
    4.8753    0.7142    2.1598 H   0  0  0  0  0  0  0  0  0  0  0  0
    5.7586    0.7344    0.6147 H   0  0  0  0  0  0  0  0  0  0  0  0
    4.0664    2.5451    0.6963 H   0  0  0  0  0  0  0  0  0  0  0  0
    3.6716    1.3583   -0.5702 H   0  0  0  0  0  0  0  0  0  0  0  0
    2.7883    1.3380    0.9750 H   0  0  0  0  0  0  0  0  0  0  0  0
    9.3932   -7.2656    0.7048 H   0  0  0  0  0  0  0  0  0  0  0  0
    7.6931   -6.7288    0.6546 H   0  0  0  0  0  0  0  0  0  0  0  0
    8.8487   -6.5636   -1.5807 H   0  0  0  0  0  0  0  0  0  0  0  0
    8.2435   -4.9981   -0.9877 H   0  0  0  0  0  0  0  0  0  0  0  0
   11.4487   -3.6826   -0.0383 H   0  0  0  0  0  0  0  0  0  0  0  0
    9.6951   -3.3895   -0.1266 H   0  0  0  0  0  0  0  0  0  0  0  0
   10.2984   -3.8309    2.1970 H   0  0  0  0  0  0  0  0  0  0  0  0
   11.1230   -5.3415    1.7289 H   0  0  0  0  0  0  0  0  0  0  0  0
    9.8692   -3.9757   -2.4925 H   0  0  0  0  0  0  0  0  0  0  0  0
   11.5987   -4.3454   -2.2913 H   0  0  0  0  0  0  0  0  0  0  0  0
   10.4958   -5.5779   -2.9493 H   0  0  0  0  0  0  0  0  0  0  0  0
    3.9240   -5.4768    0.5100 H   0  0  0  0  0  0  0  0  0  0  0  0
   10.9922   -5.9679   -0.6533 H   0  0  0  0  0  0  0  0  0  0  0  0
  1  2  1  0  0  0  0
  1 34  1  0  0  0  0
  1 35  1  0  0  0  0
  1 36  1  0  0  0  0
  2  3  1  0  0  0  0
  2 37  1  0  0  0  0
  2 38  1  0  0  0  0
  3  4  1  0  0  0  0
  3 39  1  0  0  0  0
  3 40  1  0  0  0  0
  4  8  1  0  0  0  0
  4  5  1  0  0  0  0
  5 13  1  0  0  0  0
  5  6  2  0  0  0  0
  6  7  1  0  0  0  0
  6 10  1  0  0  0  0
  7  8  2  0  0  0  0
  7  9  1  0  0  0  0
  9 41  1  0  0  0  0
  9 42  1  0  0  0  0
  9 43  1  0  0  0  0
 10 11  1  0  0  0  0
 10 33  2  0  0  0  0
 11 12  1  0  0  0  0
 11 63  1  0  0  0  0
 12 13  2  0  0  0  0
 12 14  1  0  0  0  0
 14 19  2  0  0  0  0
 14 15  1  0  0  0  0
 15 16  2  0  0  0  0
 15 44  1  0  0  0  0
 16 17  1  0  0  0  0
 16 23  1  0  0  0  0
 17 18  2  0  0  0  0
 17 45  1  0  0  0  0
 18 19  1  0  0  0  0
 18 46  1  0  0  0  0
 19 20  1  0  0  0  0
 20 21  1  0  0  0  0
 21 22  1  0  0  0  0
 21 47  1  0  0  0  0
 21 48  1  0  0  0  0
 22 49  1  0  0  0  0
 22 50  1  0  0  0  0
 22 51  1  0  0  0  0
 23 24  2  0  0  0  0
 23 25  2  0  0  0  0
 23 26  1  0  0  0  0
 26 31  1  0  0  0  0
 26 27  1  0  0  0  0
 27 28  1  0  0  0  0
 27 52  1  0  0  0  0
 27 53  1  0  0  0  0
 28 29  1  0  0  0  0
 28 54  1  0  0  0  0
 28 55  1  0  0  0  0
 29 30  1  0  0  0  0
 29 32  1  0  0  0  0
 29 64  1  0  0  0  0
 30 31  1  0  0  0  0
 30 56  1  0  0  0  0
 30 57  1  0  0  0  0
 31 58  1  0  0  0  0
 31 59  1  0  0  0  0
 32 60  1  0  0  0  0
 32 61  1  0  0  0  0
 32 62  1  0  0  0  0
M  CHG  1  29   1
M  END
$$$$
CHEMBL539033
  -OEChem-07121202283D

 40 43  0     0  0  0  0  0  0999 V2000
    0.0180   -1.1779   -0.0044 C   0  0  0  0  0  0  0  0  0  0  0  0
    0.0021   -0.0041    0.0020 C   0  0  0  0  0  0  0  0  0  0  0  0
   -0.0173    1.4278    0.0099 C   0  0  0  0  0  0  0  0  0  0  0  0
   -1.2456    2.1088    0.0311 C   0  0  0  0  0  0  0  0  0  0  0  0
   -1.2899    3.4678    0.0390 C   0  0  0  0  0  0  0  0  0  0  0  0
   -0.0975    4.2074    0.0258 C   0  0  0  0  0  0  0  0  0  0  0  0
    1.1469    3.5296    0.0044 C   0  0  0  0  0  0  0  0  0  0  0  0
    1.1774    2.1333    0.0023 C   0  0  0  0  0  0  0  0  0  0  0  0
    2.3341    4.3050   -0.0080 C   0  0  0  0  0  0  0  0  0  0  0  0
    2.2218    5.6254    0.0010 N   0  0  0  0  0  0  0  0  0  0  0  0
    1.0336    6.2190    0.0212 C   0  0  0  0  0  0  0  0  0  0  0  0
   -0.1003    5.5481    0.0334 N   0  0  0  0  0  0  0  0  0  0  0  0
    0.9842    7.6120    0.0302 N   0  0  0  0  0  0  0  0  0  0  0  0
   -0.1472    8.3887    0.0562 C   0  0  0  0  0  0  0  0  0  0  0  0
    0.2608    9.6712    0.0559 C   0  0  0  0  0  0  0  0  0  0  0  0
    1.6022    9.6852    0.0306 N   0  0  0  0  0  0  0  0  0  0  0  0
    2.0482    8.4594    0.0209 C   0  0  0  0  0  0  0  0  0  0  0  0
    3.5728    3.7009   -0.0285 N   0  0  0  0  0  0  0  0  0  0  0  0
    4.7871    4.5203   -0.0411 C   0  0  0  0  0  0  0  0  0  0  0  0
    5.9980    3.6234   -0.0627 C   0  0  0  0  0  0  0  0  0  0  0  0
    6.5667    3.2011    1.1243 C   0  0  0  0  0  0  0  0  0  0  0  0
    7.6774    2.3784    1.1045 C   0  0  0  0  0  0  0  0  0  0  0  0
    8.2192    1.9777   -0.1025 C   0  0  0  0  0  0  0  0  0  0  0  0
    7.6500    2.3993   -1.2896 C   0  0  0  0  0  0  0  0  0  0  0  0
    6.5367    3.2185   -1.2697 C   0  0  0  0  0  0  0  0  0  0  0  0
    0.0322   -2.2278   -0.0102 H   0  0  0  0  0  0  0  0  0  0  0  0
   -2.1671    1.5456    0.0410 H   0  0  0  0  0  0  0  0  0  0  0  0
   -2.2419    3.9775    0.0549 H   0  0  0  0  0  0  0  0  0  0  0  0
    2.1210    1.6082   -0.0096 H   0  0  0  0  0  0  0  0  0  0  0  0
   -1.1685    8.0381    0.0732 H   0  0  0  0  0  0  0  0  0  0  0  0
   -0.3811   10.5396    0.0728 H   0  0  0  0  0  0  0  0  0  0  0  0
    3.0876    8.1665    0.0054 H   0  0  0  0  0  0  0  0  0  0  0  0
    3.6405    2.7333   -0.0346 H   0  0  0  0  0  0  0  0  0  0  0  0
    4.7886    5.1542   -0.9278 H   0  0  0  0  0  0  0  0  0  0  0  0
    4.8134    5.1447    0.8520 H   0  0  0  0  0  0  0  0  0  0  0  0
    6.1434    3.5142    2.0673 H   0  0  0  0  0  0  0  0  0  0  0  0
    8.1221    2.0491    2.0319 H   0  0  0  0  0  0  0  0  0  0  0  0
    9.0874    1.3356   -0.1180 H   0  0  0  0  0  0  0  0  0  0  0  0
    8.0735    2.0865   -2.2326 H   0  0  0  0  0  0  0  0  0  0  0  0
    6.0898    3.5448   -2.1971 H   0  0  0  0  0  0  0  0  0  0  0  0
  1  2  3  0  0  0  0
  1 26  1  0  0  0  0
  2  3  1  0  0  0  0
  3  8  2  0  0  0  0
  3  4  1  0  0  0  0
  4  5  2  0  0  0  0
  4 27  1  0  0  0  0
  5  6  1  0  0  0  0
  5 28  1  0  0  0  0
  6 12  2  0  0  0  0
  6  7  1  0  0  0  0
  7  8  1  0  0  0  0
  7  9  2  0  0  0  0
  8 29  1  0  0  0  0
  9 10  1  0  0  0  0
  9 18  1  0  0  0  0
 10 11  2  0  0  0  0
 11 12  1  0  0  0  0
 11 13  1  0  0  0  0
 13 17  1  0  0  0  0
 13 14  1  0  0  0  0
 14 15  2  0  0  0  0
 14 30  1  0  0  0  0
 15 16  1  0  0  0  0
 15 31  1  0  0  0  0
 16 17  2  0  0  0  0
 17 32  1  0  0  0  0
 18 19  1  0  0  0  0
 18 33  1  0  0  0  0
 19 20  1  0  0  0  0
 19 34  1  0  0  0  0
 19 35  1  0  0  0  0
 20 25  2  0  0  0  0
 20 21  1  0  0  0  0
 21 22  2  0  0  0  0
 21 36  1  0  0  0  0
 22 23  1  0  0  0  0
 22 37  1  0  0  0  0
 23 24  2  0  0  0  0
 23 38  1  0  0  0  0
 24 25  1  0  0  0  0
 24 39  1  0  0  0  0
 25 40  1  0  0  0  0
M  END
$$$$
CHEMBL131892
  -OEChem-07121202283D

 62 68  0     1  0  0  0  0  0999 V2000
   -0.0173    1.4248    0.0099 C   0  0  0  0  0  0  0  0  0  0  0  0
    0.0021   -0.0041    0.0020 O   0  0  0  0  0  0  0  0  0  0  0  0
   -1.2002   -0.6374    0.0101 C   0  0  0  0  0  0  0  0  0  0  0  0
   -2.3737    0.1041    0.0195 C   0  0  0  0  0  0  0  0  0  0  0  0
   -3.5954   -0.5359    0.0277 C   0  0  0  0  0  0  0  0  0  0  0  0
   -3.6510   -1.9285    0.0261 C   0  0  0  0  0  0  0  0  0  0  0  0
   -2.4711   -2.6703    0.0162 C   0  0  0  0  0  0  0  0  0  0  0  0
   -1.2524   -2.0246    0.0031 C   0  0  0  0  0  0  0  0  0  0  0  0
   -4.9637   -2.6200    0.0354 C   0  0  0  0  0  0  0  0  0  0  0  0
   -6.1565   -1.8925    0.0400 C   0  0  0  0  0  0  0  0  0  0  0  0
   -7.3057   -2.5446    0.0478 N   0  0  0  0  0  0  0  0  0  0  0  0
   -7.3356   -3.8695    0.0513 C   0  0  0  0  0  0  0  0  0  0  0  0
   -6.2261   -4.5941    0.0476 N   0  0  0  0  0  0  0  0  0  0  0  0
   -5.0383   -4.0152    0.0340 C   0  0  0  0  0  0  0  0  0  0  0  0
   -8.5600   -4.5145    0.0595 N   0  0  0  0  0  0  0  0  0  0  0  0
   -9.8852   -3.8863    0.0586 C   0  0  0  0  0  0  0  0  0  0  0  0
  -10.9111   -4.9924    0.0687 C   0  0  0  0  0  0  0  0  0  0  0  0
  -12.3264   -4.9245    0.0713 C   0  0  0  0  0  0  0  0  0  0  0  0
  -13.0799   -6.1890    0.0813 C   0  0  0  0  0  0  0  0  0  0  0  0
  -14.4743   -6.2097    0.0838 C   0  0  0  0  0  0  0  0  0  0  0  0
  -15.1332   -7.4075    0.0927 C   0  0  0  0  0  0  0  0  0  0  0  0
  -14.4251   -8.6014    0.0992 C   0  0  0  0  0  0  0  0  0  0  0  0
  -13.0476   -8.6028    0.0973 C   0  0  0  0  0  0  0  0  0  0  0  0
  -12.3562   -7.3942    0.0878 C   0  0  0  0  0  0  0  0  0  0  0  0
  -10.9825   -7.3587    0.0847 N   0  0  0  0  0  0  0  0  0  0  0  0
  -10.2867   -6.1877    0.0753 C   0  0  0  0  0  0  0  0  0  0  0  0
   -8.7913   -5.9621    0.0644 C   0  0  2  0  0  0  0  0  0  0  0  0
   -8.1760   -6.5737    1.2967 C   0  0  0  0  0  0  0  0  0  0  0  0
   -8.2438   -5.9065    2.5056 C   0  0  0  0  0  0  0  0  0  0  0  0
   -7.6796   -6.4634    3.6375 C   0  0  0  0  0  0  0  0  0  0  0  0
   -7.0438   -7.6940    3.5636 C   0  0  0  0  0  0  0  0  0  0  0  0
   -6.9778   -8.3658    2.3488 C   0  0  0  0  0  0  0  0  0  0  0  0
   -7.5498   -7.8031    1.2174 C   0  0  0  0  0  0  0  0  0  0  0  0
   -6.3656   -9.5779    2.2556 O   0  0  0  0  0  0  0  0  0  0  0  0
   -5.4867   -9.9390    3.3266 C   0  0  0  0  0  0  0  0  0  0  0  0
   -6.1926   -9.6282    4.6534 C   0  0  0  0  0  0  0  0  0  0  0  0
   -6.4893   -8.2279    4.6860 O   0  0  0  0  0  0  0  0  0  0  0  0
  -12.9036   -3.8497    0.0659 O   0  0  0  0  0  0  0  0  0  0  0  0
    1.0053    1.8021    0.0021 H   0  0  0  0  0  0  0  0  0  0  0  0
   -0.5445    1.7859   -0.8732 H   0  0  0  0  0  0  0  0  0  0  0  0
   -0.5275    1.7763    0.9067 H   0  0  0  0  0  0  0  0  0  0  0  0
   -2.3300    1.1832    0.0207 H   0  0  0  0  0  0  0  0  0  0  0  0
   -4.5081    0.0415    0.0357 H   0  0  0  0  0  0  0  0  0  0  0  0
   -2.5111   -3.7495    0.0149 H   0  0  0  0  0  0  0  0  0  0  0  0
   -0.3378   -2.5988   -0.0087 H   0  0  0  0  0  0  0  0  0  0  0  0
   -6.1395   -0.8126    0.0375 H   0  0  0  0  0  0  0  0  0  0  0  0
   -4.1382   -4.6119    0.0264 H   0  0  0  0  0  0  0  0  0  0  0  0
  -10.0012   -3.2658    0.9472 H   0  0  0  0  0  0  0  0  0  0  0  0
  -10.0057   -3.2779   -0.8378 H   0  0  0  0  0  0  0  0  0  0  0  0
  -15.0308   -5.2842    0.0791 H   0  0  0  0  0  0  0  0  0  0  0  0
  -16.2130   -7.4249    0.0950 H   0  0  0  0  0  0  0  0  0  0  0  0
  -14.9601   -9.5396    0.1063 H   0  0  0  0  0  0  0  0  0  0  0  0
  -12.5062   -9.5373    0.1025 H   0  0  0  0  0  0  0  0  0  0  0  0
   -8.3547   -6.4092   -0.8287 H   0  0  0  0  0  0  0  0  0  0  0  0
   -8.7382   -4.9482    2.5655 H   0  0  0  0  0  0  0  0  0  0  0  0
   -7.7334   -5.9399    4.5806 H   0  0  0  0  0  0  0  0  0  0  0  0
   -7.5020   -8.3243    0.2727 H   0  0  0  0  0  0  0  0  0  0  0  0
   -5.2588  -11.0035    3.2720 H   0  0  0  0  0  0  0  0  0  0  0  0
   -4.5651   -9.3612    3.2565 H   0  0  0  0  0  0  0  0  0  0  0  0
   -7.1172  -10.2015    4.7209 H   0  0  0  0  0  0  0  0  0  0  0  0
   -5.5386   -9.8850    5.4867 H   0  0  0  0  0  0  0  0  0  0  0  0
  -10.4918   -8.1954    0.0893 H   0  0  0  0  0  0  0  0  0  0  0  0
  1  2  1  0  0  0  0
  1 39  1  0  0  0  0
  1 40  1  0  0  0  0
  1 41  1  0  0  0  0
  2  3  1  0  0  0  0
  3  8  2  0  0  0  0
  3  4  1  0  0  0  0
  4  5  2  0  0  0  0
  4 42  1  0  0  0  0
  5  6  1  0  0  0  0
  5 43  1  0  0  0  0
  6  7  2  0  0  0  0
  6  9  1  0  0  0  0
  7  8  1  0  0  0  0
  7 44  1  0  0  0  0
  8 45  1  0  0  0  0
  9 14  2  0  0  0  0
  9 10  1  0  0  0  0
 10 11  2  0  0  0  0
 10 46  1  0  0  0  0
 11 12  1  0  0  0  0
 12 13  2  0  0  0  0
 12 15  1  0  0  0  0
 13 14  1  0  0  0  0
 14 47  1  0  0  0  0
 15 27  1  0  0  0  0
 15 16  1  0  0  0  0
 16 17  1  0  0  0  0
 16 48  1  0  0  0  0
 16 49  1  0  0  0  0
 17 26  2  0  0  0  0
 17 18  1  0  0  0  0
 18 19  1  0  0  0  0
 18 38  2  0  0  0  0
 19 24  2  0  0  0  0
 19 20  1  0  0  0  0
 20 21  2  0  0  0  0
 20 50  1  0  0  0  0
 21 22  1  0  0  0  0
 21 51  1  0  0  0  0
 22 23  2  0  0  0  0
 22 52  1  0  0  0  0
 23 24  1  0  0  0  0
 23 53  1  0  0  0  0
 24 25  1  0  0  0  0
 25 26  1  0  0  0  0
 25 62  1  0  0  0  0
 26 27  1  0  0  0  0
 27 28  1  0  0  0  0
 27 54  1  0  0  0  0
 28 33  2  0  0  0  0
 28 29  1  0  0  0  0
 29 30  2  0  0  0  0
 29 55  1  0  0  0  0
 30 31  1  0  0  0  0
 30 56  1  0  0  0  0
 31 37  1  0  0  0  0
 31 32  2  0  0  0  0
 32 33  1  0  0  0  0
 32 34  1  0  0  0  0
 33 57  1  0  0  0  0
 34 35  1  0  0  0  0
 35 36  1  0  0  0  0
 35 58  1  0  0  0  0
 35 59  1  0  0  0  0
 36 37  1  0  0  0  0
 36 60  1  0  0  0  0
 36 61  1  0  0  0  0
M  END
$$$$
CHEMBL131892
  -OEChem-07121202283D

 62 68  0     1  0  0  0  0  0999 V2000
   -0.0173    1.4248    0.0099 C   0  0  0  0  0  0  0  0  0  0  0  0
    0.0021   -0.0041    0.0020 O   0  0  0  0  0  0  0  0  0  0  0  0
   -1.2002   -0.6374    0.0101 C   0  0  0  0  0  0  0  0  0  0  0  0
   -2.3737    0.1041    0.0195 C   0  0  0  0  0  0  0  0  0  0  0  0
   -3.5954   -0.5359    0.0277 C   0  0  0  0  0  0  0  0  0  0  0  0
   -3.6510   -1.9285    0.0261 C   0  0  0  0  0  0  0  0  0  0  0  0
   -2.4711   -2.6703    0.0162 C   0  0  0  0  0  0  0  0  0  0  0  0
   -1.2524   -2.0246    0.0031 C   0  0  0  0  0  0  0  0  0  0  0  0
   -4.9637   -2.6200    0.0354 C   0  0  0  0  0  0  0  0  0  0  0  0
   -6.1565   -1.8925    0.0400 C   0  0  0  0  0  0  0  0  0  0  0  0
   -7.3057   -2.5446    0.0478 N   0  0  0  0  0  0  0  0  0  0  0  0
   -7.3356   -3.8695    0.0513 C   0  0  0  0  0  0  0  0  0  0  0  0
   -6.2261   -4.5941    0.0476 N   0  0  0  0  0  0  0  0  0  0  0  0
   -5.0383   -4.0152    0.0340 C   0  0  0  0  0  0  0  0  0  0  0  0
   -8.5600   -4.5145    0.0595 N   0  0  0  0  0  0  0  0  0  0  0  0
   -9.8852   -3.8863    0.0586 C   0  0  0  0  0  0  0  0  0  0  0  0
  -10.9111   -4.9924    0.0687 C   0  0  0  0  0  0  0  0  0  0  0  0
  -12.3264   -4.9245    0.0713 C   0  0  0  0  0  0  0  0  0  0  0  0
  -13.0799   -6.1890    0.0813 C   0  0  0  0  0  0  0  0  0  0  0  0
  -14.4743   -6.2097    0.0838 C   0  0  0  0  0  0  0  0  0  0  0  0
  -15.1332   -7.4075    0.0927 C   0  0  0  0  0  0  0  0  0  0  0  0
  -14.4251   -8.6014    0.0992 C   0  0  0  0  0  0  0  0  0  0  0  0
  -13.0476   -8.6028    0.0973 C   0  0  0  0  0  0  0  0  0  0  0  0
  -12.3562   -7.3942    0.0878 C   0  0  0  0  0  0  0  0  0  0  0  0
  -10.9825   -7.3587    0.0847 N   0  0  0  0  0  0  0  0  0  0  0  0
  -10.2867   -6.1877    0.0753 C   0  0  0  0  0  0  0  0  0  0  0  0
   -8.7913   -5.9621    0.0644 C   0  0  1  0  0  0  0  0  0  0  0  0
   -8.1876   -6.5802   -1.1703 C   0  0  0  0  0  0  0  0  0  0  0  0
   -8.2570   -5.9142   -2.3798 C   0  0  0  0  0  0  0  0  0  0  0  0
   -7.7058   -6.4783   -3.5146 C   0  0  0  0  0  0  0  0  0  0  0  0
   -7.0810   -7.7146   -3.4428 C   0  0  0  0  0  0  0  0  0  0  0  0
   -7.0091   -8.3830   -2.2265 C   0  0  0  0  0  0  0  0  0  0  0  0
   -7.5607   -7.8092   -1.0905 C   0  0  0  0  0  0  0  0  0  0  0  0
   -6.3938   -9.5933   -2.1322 O   0  0  0  0  0  0  0  0  0  0  0  0
   -6.1772  -10.3024   -3.3570 C   0  0  0  0  0  0  0  0  0  0  0  0
   -5.6021   -9.3198   -4.3860 C   0  0  0  0  0  0  0  0  0  0  0  0
   -6.5464   -8.2594   -4.5697 O   0  0  0  0  0  0  0  0  0  0  0  0
  -12.9036   -3.8497    0.0659 O   0  0  0  0  0  0  0  0  0  0  0  0
    1.0053    1.8021    0.0021 H   0  0  0  0  0  0  0  0  0  0  0  0
   -0.5445    1.7859   -0.8732 H   0  0  0  0  0  0  0  0  0  0  0  0
   -0.5275    1.7763    0.9067 H   0  0  0  0  0  0  0  0  0  0  0  0
   -2.3300    1.1832    0.0207 H   0  0  0  0  0  0  0  0  0  0  0  0
   -4.5081    0.0415    0.0357 H   0  0  0  0  0  0  0  0  0  0  0  0
   -2.5111   -3.7495    0.0149 H   0  0  0  0  0  0  0  0  0  0  0  0
   -0.3378   -2.5988   -0.0087 H   0  0  0  0  0  0  0  0  0  0  0  0
   -6.1395   -0.8126    0.0375 H   0  0  0  0  0  0  0  0  0  0  0  0
   -4.1382   -4.6119    0.0264 H   0  0  0  0  0  0  0  0  0  0  0  0
  -10.0012   -3.2658    0.9472 H   0  0  0  0  0  0  0  0  0  0  0  0
  -10.0057   -3.2779   -0.8378 H   0  0  0  0  0  0  0  0  0  0  0  0
  -15.0308   -5.2842    0.0791 H   0  0  0  0  0  0  0  0  0  0  0  0
  -16.2130   -7.4249    0.0950 H   0  0  0  0  0  0  0  0  0  0  0  0
  -14.9601   -9.5396    0.1063 H   0  0  0  0  0  0  0  0  0  0  0  0
  -12.5062   -9.5373    0.1025 H   0  0  0  0  0  0  0  0  0  0  0  0
   -8.3462   -6.4045    0.9557 H   0  0  0  0  0  0  0  0  0  0  0  0
   -8.7431   -4.9515   -2.4381 H   0  0  0  0  0  0  0  0  0  0  0  0
   -7.7618   -5.9563   -4.4584 H   0  0  0  0  0  0  0  0  0  0  0  0
   -7.5040   -8.3254   -0.1436 H   0  0  0  0  0  0  0  0  0  0  0  0
   -5.4709  -11.1159   -3.1909 H   0  0  0  0  0  0  0  0  0  0  0  0
   -7.1227  -10.7044   -3.7211 H   0  0  0  0  0  0  0  0  0  0  0  0
   -4.6596   -8.9132   -4.0193 H   0  0  0  0  0  0  0  0  0  0  0  0
   -5.4376   -9.8337   -5.3331 H   0  0  0  0  0  0  0  0  0  0  0  0
  -10.4918   -8.1954    0.0893 H   0  0  0  0  0  0  0  0  0  0  0  0
  1  2  1  0  0  0  0
  1 39  1  0  0  0  0
  1 40  1  0  0  0  0
  1 41  1  0  0  0  0
  2  3  1  0  0  0  0
  3  8  2  0  0  0  0
  3  4  1  0  0  0  0
  4  5  2  0  0  0  0
  4 42  1  0  0  0  0
  5  6  1  0  0  0  0
  5 43  1  0  0  0  0
  6  7  2  0  0  0  0
  6  9  1  0  0  0  0
  7  8  1  0  0  0  0
  7 44  1  0  0  0  0
  8 45  1  0  0  0  0
  9 14  2  0  0  0  0
  9 10  1  0  0  0  0
 10 11  2  0  0  0  0
 10 46  1  0  0  0  0
 11 12  1  0  0  0  0
 12 13  2  0  0  0  0
 12 15  1  0  0  0  0
 13 14  1  0  0  0  0
 14 47  1  0  0  0  0
 15 27  1  0  0  0  0
 15 16  1  0  0  0  0
 16 17  1  0  0  0  0
 16 48  1  0  0  0  0
 16 49  1  0  0  0  0
 17 26  2  0  0  0  0
 17 18  1  0  0  0  0
 18 19  1  0  0  0  0
 18 38  2  0  0  0  0
 19 24  2  0  0  0  0
 19 20  1  0  0  0  0
 20 21  2  0  0  0  0
 20 50  1  0  0  0  0
 21 22  1  0  0  0  0
 21 51  1  0  0  0  0
 22 23  2  0  0  0  0
 22 52  1  0  0  0  0
 23 24  1  0  0  0  0
 23 53  1  0  0  0  0
 24 25  1  0  0  0  0
 25 26  1  0  0  0  0
 25 62  1  0  0  0  0
 26 27  1  0  0  0  0
 27 28  1  0  0  0  0
 27 54  1  0  0  0  0
 28 33  2  0  0  0  0
 28 29  1  0  0  0  0
 29 30  2  0  0  0  0
 29 55  1  0  0  0  0
 30 31  1  0  0  0  0
 30 56  1  0  0  0  0
 31 37  1  0  0  0  0
 31 32  2  0  0  0  0
 32 33  1  0  0  0  0
 32 34  1  0  0  0  0
 33 57  1  0  0  0  0
 34 35  1  0  0  0  0
 35 36  1  0  0  0  0
 35 58  1  0  0  0  0
 35 59  1  0  0  0  0
 36 37  1  0  0  0  0
 36 60  1  0  0  0  0
 36 61  1  0  0  0  0
M  END
$$$$
CHEMBL133687
  -OEChem-07121202283D

 77 84  0     1  0  0  0  0  0999 V2000
    0.1496    1.4672   -0.3923 C   0  0  0  0  0  0  0  0  0  0  0  0
    1.3387    2.1713   -0.5248 C   0  0  0  0  0  0  0  0  0  0  0  0
    2.5461    1.5104   -0.5766 C   0  0  0  0  0  0  0  0  0  0  0  0
    2.5763    0.1207   -0.4948 C   0  0  0  0  0  0  0  0  0  0  0  0
    1.3683   -0.5857   -0.3602 C   0  0  0  0  0  0  0  0  0  0  0  0
    0.1565    0.1027   -0.3102 C   0  0  0  0  0  0  0  0  0  0  0  0
    1.4260   -2.0541   -0.2757 C   0  0  0  0  0  0  0  0  0  0  0  0
    2.6982   -2.6753   -0.3349 C   0  0  0  0  0  0  0  0  0  0  0  0
    3.8145   -1.9299   -0.4649 C   0  0  0  0  0  0  0  0  0  0  0  0
    3.7627   -0.5711   -0.5436 N   0  0  0  0  0  0  0  0  0  0  0  0
    5.0170   -2.8464   -0.5004 C   0  0  2  0  0  0  0  0  0  0  0  0
    4.5300   -4.2239   -0.3797 N   0  0  0  0  0  0  0  0  0  0  0  0
    3.0699   -4.1362   -0.2743 C   0  0  0  0  0  0  0  0  0  0  0  0
    5.2953   -5.3769   -0.3686 C   0  0  0  0  0  0  0  0  0  0  0  0
    6.6128   -5.2764   -0.4701 N   0  0  0  0  0  0  0  0  0  0  0  0
    7.3775   -6.3540   -0.4629 C   0  0  0  0  0  0  0  0  0  0  0  0
    6.7779   -7.6105   -0.3461 C   0  0  0  0  0  0  0  0  0  0  0  0
    5.3860   -7.6736   -0.2414 C   0  0  0  0  0  0  0  0  0  0  0  0
    4.6904   -6.5502   -0.2513 N   0  0  0  0  0  0  0  0  0  0  0  0
    7.5983   -8.8467   -0.3341 C   0  0  0  0  0  0  0  0  0  0  0  0
    8.9860   -8.7647   -0.4344 C   0  0  0  0  0  0  0  0  0  0  0  0
    9.7460   -9.9155   -0.4230 C   0  0  0  0  0  0  0  0  0  0  0  0
    9.1301  -11.1546   -0.3119 C   0  0  0  0  0  0  0  0  0  0  0  0
    7.7482  -11.2395   -0.2119 C   0  0  0  0  0  0  0  0  0  0  0  0
    6.9832  -10.0918   -0.2169 C   0  0  0  0  0  0  0  0  0  0  0  0
    9.8816  -12.2869   -0.3014 O   0  0  0  0  0  0  0  0  0  0  0  0
    9.1831  -13.5280   -0.1845 C   0  0  0  0  0  0  0  0  0  0  0  0
   10.1883  -14.6815   -0.1904 C   0  0  0  0  0  0  0  0  0  0  0  0
   11.0350  -14.5993    1.0072 N   0  0  0  0  0  0  0  0  0  0  0  0
   12.2741  -15.3704    0.8303 C   0  0  0  0  0  0  0  0  0  0  0  0
   13.1513  -15.2091    2.0746 C   0  0  0  0  0  0  0  0  0  0  0  0
   12.4148  -15.6247    3.2280 O   0  0  0  0  0  0  0  0  0  0  0  0
   11.2023  -14.8941    3.4310 C   0  0  0  0  0  0  0  0  0  0  0  0
   10.3054  -15.0523    2.2004 C   0  0  0  0  0  0  0  0  0  0  0  0
    5.9370   -2.5271    0.6497 C   0  0  0  0  0  0  0  0  0  0  0  0
    5.6608   -3.0130    1.9146 C   0  0  0  0  0  0  0  0  0  0  0  0
    6.5018   -2.7273    2.9699 C   0  0  0  0  0  0  0  0  0  0  0  0
    7.6374   -1.9458    2.7702 C   0  0  0  0  0  0  0  0  0  0  0  0
    7.9001   -1.4574    1.4969 C   0  0  0  0  0  0  0  0  0  0  0  0
    7.0638   -1.7516    0.4426 C   0  0  0  0  0  0  0  0  0  0  0  0
    9.1694   -0.6329    1.5903 C   0  0  0  0  0  0  0  0  0  0  0  0
    9.3061   -0.4280    3.1176 C   0  0  0  0  0  0  0  0  0  0  0  0
    8.5963   -1.5570    3.6548 O   0  0  0  0  0  0  0  0  0  0  0  0
    0.4084   -2.7168   -0.1578 O   0  0  0  0  0  0  0  0  0  0  0  0
   -0.7877    2.0019   -0.3492 H   0  0  0  0  0  0  0  0  0  0  0  0
    1.3167    3.2492   -0.5884 H   0  0  0  0  0  0  0  0  0  0  0  0
    3.4653    2.0676   -0.6806 H   0  0  0  0  0  0  0  0  0  0  0  0
   -0.7718   -0.4395   -0.2067 H   0  0  0  0  0  0  0  0  0  0  0  0
    5.5477   -2.7234   -1.4446 H   0  0  0  0  0  0  0  0  0  0  0  0
    2.7410   -4.5628    0.6733 H   0  0  0  0  0  0  0  0  0  0  0  0
    2.6062   -4.6707   -1.1033 H   0  0  0  0  0  0  0  0  0  0  0  0
    8.4505   -6.2647   -0.5463 H   0  0  0  0  0  0  0  0  0  0  0  0
    4.8862   -8.6266   -0.1495 H   0  0  0  0  0  0  0  0  0  0  0  0
    9.4657   -7.8010   -0.5212 H   0  0  0  0  0  0  0  0  0  0  0  0
   10.8214   -9.8527   -0.5010 H   0  0  0  0  0  0  0  0  0  0  0  0
    7.2718  -12.2050   -0.1259 H   0  0  0  0  0  0  0  0  0  0  0  0
    5.9085  -10.1582   -0.1343 H   0  0  0  0  0  0  0  0  0  0  0  0
    8.6200  -13.5415    0.7487 H   0  0  0  0  0  0  0  0  0  0  0  0
    8.4972  -13.6395   -1.0243 H   0  0  0  0  0  0  0  0  0  0  0  0
    9.6522  -15.6305   -0.1920 H   0  0  0  0  0  0  0  0  0  0  0  0
   10.8121  -14.6151   -1.0818 H   0  0  0  0  0  0  0  0  0  0  0  0
   12.0305  -16.4236    0.6907 H   0  0  0  0  0  0  0  0  0  0  0  0
   12.8108  -15.0014   -0.0437 H   0  0  0  0  0  0  0  0  0  0  0  0
   14.0450  -15.8245    1.9722 H   0  0  0  0  0  0  0  0  0  0  0  0
   13.4391  -14.1635    2.1839 H   0  0  0  0  0  0  0  0  0  0  0  0
   10.6865  -15.2817    4.3095 H   0  0  0  0  0  0  0  0  0  0  0  0
   11.4335  -13.8393    3.5798 H   0  0  0  0  0  0  0  0  0  0  0  0
    9.4050  -14.4510    2.3265 H   0  0  0  0  0  0  0  0  0  0  0  0
   10.0303  -16.1004    2.0827 H   0  0  0  0  0  0  0  0  0  0  0  0
    4.7819   -3.6192    2.0771 H   0  0  0  0  0  0  0  0  0  0  0  0
    6.2792   -3.1111    3.9545 H   0  0  0  0  0  0  0  0  0  0  0  0
    7.2857   -1.3739   -0.5445 H   0  0  0  0  0  0  0  0  0  0  0  0
   10.0219   -1.1841    1.1933 H   0  0  0  0  0  0  0  0  0  0  0  0
    9.0521    0.3221    1.0781 H   0  0  0  0  0  0  0  0  0  0  0  0
   10.3536   -0.4517    3.4182 H   0  0  0  0  0  0  0  0  0  0  0  0
    8.8359    0.5060    3.4255 H   0  0  0  0  0  0  0  0  0  0  0  0
    4.5911   -0.0750   -0.6369 H   0  0  0  0  0  0  0  0  0  0  0  0
  1  6  2  0  0  0  0
  1  2  1  0  0  0  0
  1 45  1  0  0  0  0
  2  3  2  0  0  0  0
  2 46  1  0  0  0  0
  3  4  1  0  0  0  0
  3 47  1  0  0  0  0
  4 10  1  0  0  0  0
  4  5  2  0  0  0  0
  5  6  1  0  0  0  0
  5  7  1  0  0  0  0
  6 48  1  0  0  0  0
  7  8  1  0  0  0  0
  7 44  2  0  0  0  0
  8 13  1  0  0  0  0
  8  9  2  0  0  0  0
  9 10  1  0  0  0  0
  9 11  1  0  0  0  0
 10 77  1  0  0  0  0
 11 12  1  0  0  0  0
 11 35  1  0  0  0  0
 11 49  1  0  0  0  0
 12 13  1  0  0  0  0
 12 14  1  0  0  0  0
 13 50  1  0  0  0  0
 13 51  1  0  0  0  0
 14 19  2  0  0  0  0
 14 15  1  0  0  0  0
 15 16  2  0  0  0  0
 16 17  1  0  0  0  0
 16 52  1  0  0  0  0
 17 18  2  0  0  0  0
 17 20  1  0  0  0  0
 18 19  1  0  0  0  0
 18 53  1  0  0  0  0
 20 25  2  0  0  0  0
 20 21  1  0  0  0  0
 21 22  2  0  0  0  0
 21 54  1  0  0  0  0
 22 23  1  0  0  0  0
 22 55  1  0  0  0  0
 23 24  2  0  0  0  0
 23 26  1  0  0  0  0
 24 25  1  0  0  0  0
 24 56  1  0  0  0  0
 25 57  1  0  0  0  0
 26 27  1  0  0  0  0
 27 28  1  0  0  0  0
 27 58  1  0  0  0  0
 27 59  1  0  0  0  0
 28 29  1  0  0  0  0
 28 60  1  0  0  0  0
 28 61  1  0  0  0  0
 29 34  1  0  0  0  0
 29 30  1  0  0  0  0
 30 31  1  0  0  0  0
 30 62  1  0  0  0  0
 30 63  1  0  0  0  0
 31 32  1  0  0  0  0
 31 64  1  0  0  0  0
 31 65  1  0  0  0  0
 32 33  1  0  0  0  0
 33 34  1  0  0  0  0
 33 66  1  0  0  0  0
 33 67  1  0  0  0  0
 34 68  1  0  0  0  0
 34 69  1  0  0  0  0
 35 40  2  0  0  0  0
 35 36  1  0  0  0  0
 36 37  2  0  0  0  0
 36 70  1  0  0  0  0
 37 38  1  0  0  0  0
 37 71  1  0  0  0  0
 38 43  1  0  0  0  0
 38 39  2  0  0  0  0
 39 40  1  0  0  0  0
 39 41  1  0  0  0  0
 40 72  1  0  0  0  0
 41 42  1  0  0  0  0
 41 73  1  0  0  0  0
 41 74  1  0  0  0  0
 42 43  1  0  0  0  0
 42 75  1  0  0  0  0
 42 76  1  0  0  0  0
M  END
$$$$
CHEMBL133687
  -OEChem-07121202283D

 78 85  0     1  0  0  0  0  0999 V2000
   -0.9048    0.7491    0.4709 C   0  0  0  0  0  0  0  0  0  0  0  0
    0.2357    1.5372    0.3975 C   0  0  0  0  0  0  0  0  0  0  0  0
    1.4850    0.9620    0.3209 C   0  0  0  0  0  0  0  0  0  0  0  0
    1.6073   -0.4250    0.3174 C   0  0  0  0  0  0  0  0  0  0  0  0
    0.4480   -1.2167    0.3924 C   0  0  0  0  0  0  0  0  0  0  0  0
   -0.8075   -0.6145    0.4689 C   0  0  0  0  0  0  0  0  0  0  0  0
    0.6029   -2.6805    0.3871 C   0  0  0  0  0  0  0  0  0  0  0  0
    1.9143   -3.2113    0.3064 C   0  0  0  0  0  0  0  0  0  0  0  0
    2.9794   -2.3871    0.2372 C   0  0  0  0  0  0  0  0  0  0  0  0
    2.8377   -1.0324    0.2417 N   0  0  0  0  0  0  0  0  0  0  0  0
    4.2407   -3.2181    0.1611 C   0  0  2  0  0  0  0  0  0  0  0  0
    3.8458   -4.6296    0.1903 N   0  0  0  0  0  0  0  0  0  0  0  0
    2.3822   -4.6453    0.2818 C   0  0  0  0  0  0  0  0  0  0  0  0
    4.6863   -5.7279    0.1405 C   0  0  0  0  0  0  0  0  0  0  0  0
    5.9950   -5.5343    0.0627 N   0  0  0  0  0  0  0  0  0  0  0  0
    6.8299   -6.5573    0.0136 C   0  0  0  0  0  0  0  0  0  0  0  0
    6.3145   -7.8556    0.0449 C   0  0  0  0  0  0  0  0  0  0  0  0
    4.9291   -8.0170    0.1273 C   0  0  0  0  0  0  0  0  0  0  0  0
    4.1601   -6.9436    0.1775 N   0  0  0  0  0  0  0  0  0  0  0  0
    7.2156   -9.0331   -0.0086 C   0  0  0  0  0  0  0  0  0  0  0  0
    8.5956   -8.8535   -0.0853 C   0  0  0  0  0  0  0  0  0  0  0  0
    9.4307   -9.9500   -0.1349 C   0  0  0  0  0  0  0  0  0  0  0  0
    8.8980  -11.2316   -0.1084 C   0  0  0  0  0  0  0  0  0  0  0  0
    7.5239  -11.4138   -0.0319 C   0  0  0  0  0  0  0  0  0  0  0  0
    6.6841  -10.3211    0.0237 C   0  0  0  0  0  0  0  0  0  0  0  0
    9.7233  -12.3101   -0.1578 O   0  0  0  0  0  0  0  0  0  0  0  0
    9.1082  -13.5996   -0.1267 C   0  0  0  0  0  0  0  0  0  0  0  0
   10.1883  -14.6815   -0.1904 C   0  0  0  0  0  0  0  0  0  0  0  0
   11.0350  -14.5993    1.0072 N   0  3  0  0  0  0  0  0  0  0  0  0
   12.1565  -15.5401    0.8798 C   0  0  0  0  0  0  0  0  0  0  0  0
   13.0373  -15.4524    2.1287 C   0  0  0  0  0  0  0  0  0  0  0  0
   12.2445  -15.7335    3.2855 O   0  0  0  0  0  0  0  0  0  0  0  0
   11.1244  -14.8575    3.4403 C   0  0  0  0  0  0  0  0  0  0  0  0
   10.2401  -14.9441    2.1939 C   0  0  0  0  0  0  0  0  0  0  0  0
    5.1269   -2.9109    1.3407 C   0  0  0  0  0  0  0  0  0  0  0  0
    4.8725   -3.4919    2.5695 C   0  0  0  0  0  0  0  0  0  0  0  0
    5.6830   -3.2174    3.6513 C   0  0  0  0  0  0  0  0  0  0  0  0
    6.7655   -2.3517    3.5151 C   0  0  0  0  0  0  0  0  0  0  0  0
    7.0065   -1.7686    2.2778 C   0  0  0  0  0  0  0  0  0  0  0  0
    6.2012   -2.0512    1.1966 C   0  0  0  0  0  0  0  0  0  0  0  0
    8.2169   -0.8694    2.4384 C   0  0  0  0  0  0  0  0  0  0  0  0
    8.3260   -0.7514    3.9771 C   0  0  0  0  0  0  0  0  0  0  0  0
    7.6884   -1.9562    4.4344 O   0  0  0  0  0  0  0  0  0  0  0  0
   -0.3691   -3.4151    0.4506 O   0  0  0  0  0  0  0  0  0  0  0  0
   -1.8761    1.2168    0.5345 H   0  0  0  0  0  0  0  0  0  0  0  0
    0.1424    2.6131    0.4001 H   0  0  0  0  0  0  0  0  0  0  0  0
    2.3659    1.5843    0.2635 H   0  0  0  0  0  0  0  0  0  0  0  0
   -1.6983   -1.2222    0.5265 H   0  0  0  0  0  0  0  0  0  0  0  0
    4.7704   -3.0017   -0.7666 H   0  0  0  0  0  0  0  0  0  0  0  0
    2.0740   -5.1510    1.1970 H   0  0  0  0  0  0  0  0  0  0  0  0
    1.9627   -5.1567   -0.5845 H   0  0  0  0  0  0  0  0  0  0  0  0
    7.8953   -6.3923   -0.0502 H   0  0  0  0  0  0  0  0  0  0  0  0
    4.4933   -9.0048    0.1537 H   0  0  0  0  0  0  0  0  0  0  0  0
    9.0105   -7.8566   -0.1064 H   0  0  0  0  0  0  0  0  0  0  0  0
   10.5000   -9.8114   -0.1948 H   0  0  0  0  0  0  0  0  0  0  0  0
    7.1124  -12.4121   -0.0118 H   0  0  0  0  0  0  0  0  0  0  0  0
    5.6154  -10.4635    0.0880 H   0  0  0  0  0  0  0  0  0  0  0  0
    8.5390  -13.7085    0.7965 H   0  0  0  0  0  0  0  0  0  0  0  0
    8.4389  -13.7037   -0.9806 H   0  0  0  0  0  0  0  0  0  0  0  0
    9.7169  -15.6632   -0.2354 H   0  0  0  0  0  0  0  0  0  0  0  0
   10.8008  -14.5314   -1.0795 H   0  0  0  0  0  0  0  0  0  0  0  0
   11.7705  -16.5543    0.7776 H   0  0  0  0  0  0  0  0  0  0  0  0
   12.7469  -15.2851   -0.0002 H   0  0  0  0  0  0  0  0  0  0  0  0
   13.8457  -16.1799    2.0558 H   0  0  0  0  0  0  0  0  0  0  0  0
   13.4558  -14.4491    2.2092 H   0  0  0  0  0  0  0  0  0  0  0  0
   10.5484  -15.1546    4.3167 H   0  0  0  0  0  0  0  0  0  0  0  0
   11.4775  -13.8339    3.5657 H   0  0  0  0  0  0  0  0  0  0  0  0
    9.4079  -14.2467    2.2893 H   0  0  0  0  0  0  0  0  0  0  0  0
    9.8548  -15.9586    2.0912 H   0  0  0  0  0  0  0  0  0  0  0  0
    4.0346   -4.1638    2.6829 H   0  0  0  0  0  0  0  0  0  0  0  0
    5.4777   -3.6758    4.6074 H   0  0  0  0  0  0  0  0  0  0  0  0
    6.4062   -1.5988    0.2375 H   0  0  0  0  0  0  0  0  0  0  0  0
    9.1079   -1.3371    2.0195 H   0  0  0  0  0  0  0  0  0  0  0  0
    8.0407    0.1058    1.9845 H   0  0  0  0  0  0  0  0  0  0  0  0
    9.3699   -0.7245    4.2893 H   0  0  0  0  0  0  0  0  0  0  0  0
    7.7917    0.1284    4.3358 H   0  0  0  0  0  0  0  0  0  0  0  0
    3.6318   -0.4778    0.1899 H   0  0  0  0  0  0  0  0  0  0  0  0
   11.3924  -13.6605    1.1028 H   0  0  0  0  0  0  0  0  0  0  0  0
  1  6  2  0  0  0  0
  1  2  1  0  0  0  0
  1 45  1  0  0  0  0
  2  3  2  0  0  0  0
  2 46  1  0  0  0  0
  3  4  1  0  0  0  0
  3 47  1  0  0  0  0
  4 10  1  0  0  0  0
  4  5  2  0  0  0  0
  5  6  1  0  0  0  0
  5  7  1  0  0  0  0
  6 48  1  0  0  0  0
  7  8  1  0  0  0  0
  7 44  2  0  0  0  0
  8 13  1  0  0  0  0
  8  9  2  0  0  0  0
  9 10  1  0  0  0  0
  9 11  1  0  0  0  0
 10 77  1  0  0  0  0
 11 12  1  0  0  0  0
 11 35  1  0  0  0  0
 11 49  1  0  0  0  0
 12 13  1  0  0  0  0
 12 14  1  0  0  0  0
 13 50  1  0  0  0  0
 13 51  1  0  0  0  0
 14 19  2  0  0  0  0
 14 15  1  0  0  0  0
 15 16  2  0  0  0  0
 16 17  1  0  0  0  0
 16 52  1  0  0  0  0
 17 18  2  0  0  0  0
 17 20  1  0  0  0  0
 18 19  1  0  0  0  0
 18 53  1  0  0  0  0
 20 25  2  0  0  0  0
 20 21  1  0  0  0  0
 21 22  2  0  0  0  0
 21 54  1  0  0  0  0
 22 23  1  0  0  0  0
 22 55  1  0  0  0  0
 23 24  2  0  0  0  0
 23 26  1  0  0  0  0
 24 25  1  0  0  0  0
 24 56  1  0  0  0  0
 25 57  1  0  0  0  0
 26 27  1  0  0  0  0
 27 28  1  0  0  0  0
 27 58  1  0  0  0  0
 27 59  1  0  0  0  0
 28 29  1  0  0  0  0
 28 60  1  0  0  0  0
 28 61  1  0  0  0  0
 29 34  1  0  0  0  0
 29 30  1  0  0  0  0
 29 78  1  0  0  0  0
 30 31  1  0  0  0  0
 30 62  1  0  0  0  0
 30 63  1  0  0  0  0
 31 32  1  0  0  0  0
 31 64  1  0  0  0  0
 31 65  1  0  0  0  0
 32 33  1  0  0  0  0
 33 34  1  0  0  0  0
 33 66  1  0  0  0  0
 33 67  1  0  0  0  0
 34 68  1  0  0  0  0
 34 69  1  0  0  0  0
 35 40  2  0  0  0  0
 35 36  1  0  0  0  0
 36 37  2  0  0  0  0
 36 70  1  0  0  0  0
 37 38  1  0  0  0  0
 37 71  1  0  0  0  0
 38 43  1  0  0  0  0
 38 39  2  0  0  0  0
 39 40  1  0  0  0  0
 39 41  1  0  0  0  0
 40 72  1  0  0  0  0
 41 42  1  0  0  0  0
 41 73  1  0  0  0  0
 41 74  1  0  0  0  0
 42 43  1  0  0  0  0
 42 75  1  0  0  0  0
 42 76  1  0  0  0  0
M  CHG  1  29   1
M  END
$$$$
CHEMBL133687
  -OEChem-07121202283D

 77 84  0     1  0  0  0  0  0999 V2000
    0.1496    1.4672   -0.3923 C   0  0  0  0  0  0  0  0  0  0  0  0
    1.3387    2.1713   -0.5248 C   0  0  0  0  0  0  0  0  0  0  0  0
    2.5461    1.5104   -0.5766 C   0  0  0  0  0  0  0  0  0  0  0  0
    2.5763    0.1207   -0.4948 C   0  0  0  0  0  0  0  0  0  0  0  0
    1.3683   -0.5857   -0.3602 C   0  0  0  0  0  0  0  0  0  0  0  0
    0.1565    0.1027   -0.3102 C   0  0  0  0  0  0  0  0  0  0  0  0
    1.4260   -2.0541   -0.2757 C   0  0  0  0  0  0  0  0  0  0  0  0
    2.6982   -2.6753   -0.3349 C   0  0  0  0  0  0  0  0  0  0  0  0
    3.8145   -1.9299   -0.4649 C   0  0  0  0  0  0  0  0  0  0  0  0
    3.7627   -0.5711   -0.5436 N   0  0  0  0  0  0  0  0  0  0  0  0
    5.0170   -2.8464   -0.5004 C   0  0  1  0  0  0  0  0  0  0  0  0
    4.5300   -4.2239   -0.3797 N   0  0  0  0  0  0  0  0  0  0  0  0
    3.0699   -4.1362   -0.2743 C   0  0  0  0  0  0  0  0  0  0  0  0
    5.2953   -5.3769   -0.3686 C   0  0  0  0  0  0  0  0  0  0  0  0
    6.6128   -5.2764   -0.4701 N   0  0  0  0  0  0  0  0  0  0  0  0
    7.3775   -6.3540   -0.4629 C   0  0  0  0  0  0  0  0  0  0  0  0
    6.7779   -7.6105   -0.3461 C   0  0  0  0  0  0  0  0  0  0  0  0
    5.3860   -7.6736   -0.2414 C   0  0  0  0  0  0  0  0  0  0  0  0
    4.6904   -6.5502   -0.2513 N   0  0  0  0  0  0  0  0  0  0  0  0
    7.5983   -8.8467   -0.3341 C   0  0  0  0  0  0  0  0  0  0  0  0
    8.9860   -8.7647   -0.4344 C   0  0  0  0  0  0  0  0  0  0  0  0
    9.7460   -9.9155   -0.4230 C   0  0  0  0  0  0  0  0  0  0  0  0
    9.1301  -11.1546   -0.3119 C   0  0  0  0  0  0  0  0  0  0  0  0
    7.7482  -11.2395   -0.2119 C   0  0  0  0  0  0  0  0  0  0  0  0
    6.9832  -10.0918   -0.2169 C   0  0  0  0  0  0  0  0  0  0  0  0
    9.8816  -12.2869   -0.3014 O   0  0  0  0  0  0  0  0  0  0  0  0
    9.1831  -13.5280   -0.1845 C   0  0  0  0  0  0  0  0  0  0  0  0
   10.1883  -14.6815   -0.1904 C   0  0  0  0  0  0  0  0  0  0  0  0
   11.0350  -14.5993    1.0072 N   0  0  0  0  0  0  0  0  0  0  0  0
   12.2741  -15.3704    0.8303 C   0  0  0  0  0  0  0  0  0  0  0  0
   13.1513  -15.2091    2.0746 C   0  0  0  0  0  0  0  0  0  0  0  0
   12.4148  -15.6247    3.2280 O   0  0  0  0  0  0  0  0  0  0  0  0
   11.2023  -14.8941    3.4310 C   0  0  0  0  0  0  0  0  0  0  0  0
   10.3054  -15.0523    2.2004 C   0  0  0  0  0  0  0  0  0  0  0  0
    5.7507   -2.6764   -1.8058 C   0  0  0  0  0  0  0  0  0  0  0  0
    5.2855   -3.2993   -2.9494 C   0  0  0  0  0  0  0  0  0  0  0  0
    5.9508   -3.1435   -4.1476 C   0  0  0  0  0  0  0  0  0  0  0  0
    7.0982   -2.3568   -4.2157 C   0  0  0  0  0  0  0  0  0  0  0  0
    7.5598   -1.7424   -3.0589 C   0  0  0  0  0  0  0  0  0  0  0  0
    6.8887   -1.8919   -1.8653 C   0  0  0  0  0  0  0  0  0  0  0  0
    8.8196   -0.9845   -3.4306 C   0  0  0  0  0  0  0  0  0  0  0  0
    9.1683   -1.5990   -4.8069 C   0  0  0  0  0  0  0  0  0  0  0  0
    7.8923   -2.0614   -5.2813 O   0  0  0  0  0  0  0  0  0  0  0  0
    0.4084   -2.7168   -0.1578 O   0  0  0  0  0  0  0  0  0  0  0  0
   -0.7877    2.0019   -0.3492 H   0  0  0  0  0  0  0  0  0  0  0  0
    1.3167    3.2492   -0.5884 H   0  0  0  0  0  0  0  0  0  0  0  0
    3.4653    2.0676   -0.6806 H   0  0  0  0  0  0  0  0  0  0  0  0
   -0.7718   -0.4395   -0.2067 H   0  0  0  0  0  0  0  0  0  0  0  0
    5.6824   -2.6155    0.3315 H   0  0  0  0  0  0  0  0  0  0  0  0
    2.7410   -4.5628    0.6733 H   0  0  0  0  0  0  0  0  0  0  0  0
    2.6062   -4.6707   -1.1033 H   0  0  0  0  0  0  0  0  0  0  0  0
    8.4505   -6.2647   -0.5463 H   0  0  0  0  0  0  0  0  0  0  0  0
    4.8862   -8.6266   -0.1495 H   0  0  0  0  0  0  0  0  0  0  0  0
    9.4657   -7.8010   -0.5212 H   0  0  0  0  0  0  0  0  0  0  0  0
   10.8214   -9.8527   -0.5010 H   0  0  0  0  0  0  0  0  0  0  0  0
    7.2718  -12.2050   -0.1259 H   0  0  0  0  0  0  0  0  0  0  0  0
    5.9085  -10.1582   -0.1343 H   0  0  0  0  0  0  0  0  0  0  0  0
    8.6200  -13.5415    0.7487 H   0  0  0  0  0  0  0  0  0  0  0  0
    8.4972  -13.6395   -1.0243 H   0  0  0  0  0  0  0  0  0  0  0  0
    9.6522  -15.6305   -0.1920 H   0  0  0  0  0  0  0  0  0  0  0  0
   10.8121  -14.6151   -1.0818 H   0  0  0  0  0  0  0  0  0  0  0  0
   12.0305  -16.4236    0.6907 H   0  0  0  0  0  0  0  0  0  0  0  0
   12.8108  -15.0014   -0.0437 H   0  0  0  0  0  0  0  0  0  0  0  0
   14.0450  -15.8245    1.9722 H   0  0  0  0  0  0  0  0  0  0  0  0
   13.4391  -14.1635    2.1839 H   0  0  0  0  0  0  0  0  0  0  0  0
   10.6865  -15.2817    4.3095 H   0  0  0  0  0  0  0  0  0  0  0  0
   11.4335  -13.8393    3.5798 H   0  0  0  0  0  0  0  0  0  0  0  0
    9.4050  -14.4510    2.3265 H   0  0  0  0  0  0  0  0  0  0  0  0
   10.0303  -16.1004    2.0827 H   0  0  0  0  0  0  0  0  0  0  0  0
    4.3968   -3.9112   -2.9041 H   0  0  0  0  0  0  0  0  0  0  0  0
    5.5805   -3.6330   -5.0362 H   0  0  0  0  0  0  0  0  0  0  0  0
    7.2528   -1.3999   -0.9755 H   0  0  0  0  0  0  0  0  0  0  0  0
    8.6197    0.0833   -3.5202 H   0  0  0  0  0  0  0  0  0  0  0  0
    9.6140   -1.1713   -2.7081 H   0  0  0  0  0  0  0  0  0  0  0  0
    9.5775   -0.8416   -5.4755 H   0  0  0  0  0  0  0  0  0  0  0  0
    9.8629   -2.4313   -4.6934 H   0  0  0  0  0  0  0  0  0  0  0  0
    4.5911   -0.0750   -0.6369 H   0  0  0  0  0  0  0  0  0  0  0  0
  1  6  2  0  0  0  0
  1  2  1  0  0  0  0
  1 45  1  0  0  0  0
  2  3  2  0  0  0  0
  2 46  1  0  0  0  0
  3  4  1  0  0  0  0
  3 47  1  0  0  0  0
  4 10  1  0  0  0  0
  4  5  2  0  0  0  0
  5  6  1  0  0  0  0
  5  7  1  0  0  0  0
  6 48  1  0  0  0  0
  7  8  1  0  0  0  0
  7 44  2  0  0  0  0
  8 13  1  0  0  0  0
  8  9  2  0  0  0  0
  9 10  1  0  0  0  0
  9 11  1  0  0  0  0
 10 77  1  0  0  0  0
 11 12  1  0  0  0  0
 11 35  1  0  0  0  0
 11 49  1  0  0  0  0
 12 13  1  0  0  0  0
 12 14  1  0  0  0  0
 13 50  1  0  0  0  0
 13 51  1  0  0  0  0
 14 19  2  0  0  0  0
 14 15  1  0  0  0  0
 15 16  2  0  0  0  0
 16 17  1  0  0  0  0
 16 52  1  0  0  0  0
 17 18  2  0  0  0  0
 17 20  1  0  0  0  0
 18 19  1  0  0  0  0
 18 53  1  0  0  0  0
 20 25  2  0  0  0  0
 20 21  1  0  0  0  0
 21 22  2  0  0  0  0
 21 54  1  0  0  0  0
 22 23  1  0  0  0  0
 22 55  1  0  0  0  0
 23 24  2  0  0  0  0
 23 26  1  0  0  0  0
 24 25  1  0  0  0  0
 24 56  1  0  0  0  0
 25 57  1  0  0  0  0
 26 27  1  0  0  0  0
 27 28  1  0  0  0  0
 27 58  1  0  0  0  0
 27 59  1  0  0  0  0
 28 29  1  0  0  0  0
 28 60  1  0  0  0  0
 28 61  1  0  0  0  0
 29 34  1  0  0  0  0
 29 30  1  0  0  0  0
 30 31  1  0  0  0  0
 30 62  1  0  0  0  0
 30 63  1  0  0  0  0
 31 32  1  0  0  0  0
 31 64  1  0  0  0  0
 31 65  1  0  0  0  0
 32 33  1  0  0  0  0
 33 34  1  0  0  0  0
 33 66  1  0  0  0  0
 33 67  1  0  0  0  0
 34 68  1  0  0  0  0
 34 69  1  0  0  0  0
 35 40  2  0  0  0  0
 35 36  1  0  0  0  0
 36 37  2  0  0  0  0
 36 70  1  0  0  0  0
 37 38  1  0  0  0  0
 37 71  1  0  0  0  0
 38 43  1  0  0  0  0
 38 39  2  0  0  0  0
 39 40  1  0  0  0  0
 39 41  1  0  0  0  0
 40 72  1  0  0  0  0
 41 42  1  0  0  0  0
 41 73  1  0  0  0  0
 41 74  1  0  0  0  0
 42 43  1  0  0  0  0
 42 75  1  0  0  0  0
 42 76  1  0  0  0  0
M  END
$$$$
CHEMBL133687
  -OEChem-07121202283D

 78 85  0     1  0  0  0  0  0999 V2000
   -0.9048    0.7491    0.4709 C   0  0  0  0  0  0  0  0  0  0  0  0
    0.2357    1.5372    0.3975 C   0  0  0  0  0  0  0  0  0  0  0  0
    1.4850    0.9620    0.3209 C   0  0  0  0  0  0  0  0  0  0  0  0
    1.6073   -0.4250    0.3174 C   0  0  0  0  0  0  0  0  0  0  0  0
    0.4480   -1.2167    0.3924 C   0  0  0  0  0  0  0  0  0  0  0  0
   -0.8075   -0.6145    0.4689 C   0  0  0  0  0  0  0  0  0  0  0  0
    0.6029   -2.6805    0.3871 C   0  0  0  0  0  0  0  0  0  0  0  0
    1.9143   -3.2113    0.3064 C   0  0  0  0  0  0  0  0  0  0  0  0
    2.9794   -2.3871    0.2372 C   0  0  0  0  0  0  0  0  0  0  0  0
    2.8377   -1.0324    0.2417 N   0  0  0  0  0  0  0  0  0  0  0  0
    4.2407   -3.2181    0.1611 C   0  0  1  0  0  0  0  0  0  0  0  0
    3.8458   -4.6296    0.1903 N   0  0  0  0  0  0  0  0  0  0  0  0
    2.3822   -4.6453    0.2818 C   0  0  0  0  0  0  0  0  0  0  0  0
    4.6863   -5.7279    0.1405 C   0  0  0  0  0  0  0  0  0  0  0  0
    5.9950   -5.5343    0.0627 N   0  0  0  0  0  0  0  0  0  0  0  0
    6.8299   -6.5573    0.0136 C   0  0  0  0  0  0  0  0  0  0  0  0
    6.3145   -7.8556    0.0449 C   0  0  0  0  0  0  0  0  0  0  0  0
    4.9291   -8.0170    0.1273 C   0  0  0  0  0  0  0  0  0  0  0  0
    4.1601   -6.9436    0.1775 N   0  0  0  0  0  0  0  0  0  0  0  0
    7.2156   -9.0331   -0.0086 C   0  0  0  0  0  0  0  0  0  0  0  0
    8.5956   -8.8535   -0.0853 C   0  0  0  0  0  0  0  0  0  0  0  0
    9.4307   -9.9500   -0.1349 C   0  0  0  0  0  0  0  0  0  0  0  0
    8.8980  -11.2316   -0.1084 C   0  0  0  0  0  0  0  0  0  0  0  0
    7.5239  -11.4138   -0.0319 C   0  0  0  0  0  0  0  0  0  0  0  0
    6.6841  -10.3211    0.0237 C   0  0  0  0  0  0  0  0  0  0  0  0
    9.7233  -12.3101   -0.1578 O   0  0  0  0  0  0  0  0  0  0  0  0
    9.1082  -13.5996   -0.1267 C   0  0  0  0  0  0  0  0  0  0  0  0
   10.1883  -14.6815   -0.1904 C   0  0  0  0  0  0  0  0  0  0  0  0
   11.0350  -14.5993    1.0072 N   0  3  0  0  0  0  0  0  0  0  0  0
   12.1565  -15.5401    0.8798 C   0  0  0  0  0  0  0  0  0  0  0  0
   13.0373  -15.4524    2.1287 C   0  0  0  0  0  0  0  0  0  0  0  0
   12.2445  -15.7335    3.2855 O   0  0  0  0  0  0  0  0  0  0  0  0
   11.1244  -14.8575    3.4403 C   0  0  0  0  0  0  0  0  0  0  0  0
   10.2401  -14.9441    2.1939 C   0  0  0  0  0  0  0  0  0  0  0  0
    4.9731   -2.9189   -1.1215 C   0  0  0  0  0  0  0  0  0  0  0  0
    4.5609   -3.4987   -2.3074 C   0  0  0  0  0  0  0  0  0  0  0  0
    5.2250   -3.2249   -3.4848 C   0  0  0  0  0  0  0  0  0  0  0  0
    6.3179   -2.3614   -3.4893 C   0  0  0  0  0  0  0  0  0  0  0  0
    6.7270   -1.7910   -2.2910 C   0  0  0  0  0  0  0  0  0  0  0  0
    6.0566   -2.0586   -1.1178 C   0  0  0  0  0  0  0  0  0  0  0  0
    7.9366   -0.9298   -2.5988 C   0  0  0  0  0  0  0  0  0  0  0  0
    8.3379   -1.4329   -4.0056 C   0  0  0  0  0  0  0  0  0  0  0  0
    7.1000   -1.9483   -4.5242 O   0  0  0  0  0  0  0  0  0  0  0  0
   -0.3691   -3.4151    0.4506 O   0  0  0  0  0  0  0  0  0  0  0  0
   -1.8761    1.2168    0.5345 H   0  0  0  0  0  0  0  0  0  0  0  0
    0.1424    2.6131    0.4001 H   0  0  0  0  0  0  0  0  0  0  0  0
    2.3659    1.5843    0.2635 H   0  0  0  0  0  0  0  0  0  0  0  0
   -1.6983   -1.2222    0.5265 H   0  0  0  0  0  0  0  0  0  0  0  0
    4.8817   -2.9959    1.0143 H   0  0  0  0  0  0  0  0  0  0  0  0
    2.0740   -5.1510    1.1970 H   0  0  0  0  0  0  0  0  0  0  0  0
    1.9627   -5.1567   -0.5845 H   0  0  0  0  0  0  0  0  0  0  0  0
    7.8953   -6.3923   -0.0502 H   0  0  0  0  0  0  0  0  0  0  0  0
    4.4933   -9.0048    0.1537 H   0  0  0  0  0  0  0  0  0  0  0  0
    9.0105   -7.8566   -0.1064 H   0  0  0  0  0  0  0  0  0  0  0  0
   10.5000   -9.8114   -0.1948 H   0  0  0  0  0  0  0  0  0  0  0  0
    7.1124  -12.4121   -0.0118 H   0  0  0  0  0  0  0  0  0  0  0  0
    5.6154  -10.4635    0.0880 H   0  0  0  0  0  0  0  0  0  0  0  0
    8.5390  -13.7085    0.7965 H   0  0  0  0  0  0  0  0  0  0  0  0
    8.4389  -13.7037   -0.9806 H   0  0  0  0  0  0  0  0  0  0  0  0
    9.7169  -15.6632   -0.2354 H   0  0  0  0  0  0  0  0  0  0  0  0
   10.8008  -14.5314   -1.0795 H   0  0  0  0  0  0  0  0  0  0  0  0
   11.7705  -16.5543    0.7776 H   0  0  0  0  0  0  0  0  0  0  0  0
   12.7469  -15.2851   -0.0002 H   0  0  0  0  0  0  0  0  0  0  0  0
   13.8457  -16.1799    2.0558 H   0  0  0  0  0  0  0  0  0  0  0  0
   13.4558  -14.4491    2.2092 H   0  0  0  0  0  0  0  0  0  0  0  0
   10.5484  -15.1546    4.3167 H   0  0  0  0  0  0  0  0  0  0  0  0
   11.4775  -13.8339    3.5657 H   0  0  0  0  0  0  0  0  0  0  0  0
    9.4079  -14.2467    2.2893 H   0  0  0  0  0  0  0  0  0  0  0  0
    9.8548  -15.9586    2.0912 H   0  0  0  0  0  0  0  0  0  0  0  0
    3.7147   -4.1697   -2.3115 H   0  0  0  0  0  0  0  0  0  0  0  0
    4.8963   -3.6815   -4.4067 H   0  0  0  0  0  0  0  0  0  0  0  0
    6.3791   -1.6001   -0.1947 H   0  0  0  0  0  0  0  0  0  0  0  0
    7.6665    0.1259   -2.6250 H   0  0  0  0  0  0  0  0  0  0  0  0
    8.7352   -1.1083   -1.8788 H   0  0  0  0  0  0  0  0  0  0  0  0
    8.7016   -0.6099   -4.6209 H   0  0  0  0  0  0  0  0  0  0  0  0
    9.0855   -2.2229   -3.9344 H   0  0  0  0  0  0  0  0  0  0  0  0
    3.6318   -0.4778    0.1899 H   0  0  0  0  0  0  0  0  0  0  0  0
   11.3924  -13.6605    1.1028 H   0  0  0  0  0  0  0  0  0  0  0  0
  1  6  2  0  0  0  0
  1  2  1  0  0  0  0
  1 45  1  0  0  0  0
  2  3  2  0  0  0  0
  2 46  1  0  0  0  0
  3  4  1  0  0  0  0
  3 47  1  0  0  0  0
  4 10  1  0  0  0  0
  4  5  2  0  0  0  0
  5  6  1  0  0  0  0
  5  7  1  0  0  0  0
  6 48  1  0  0  0  0
  7  8  1  0  0  0  0
  7 44  2  0  0  0  0
  8 13  1  0  0  0  0
  8  9  2  0  0  0  0
  9 10  1  0  0  0  0
  9 11  1  0  0  0  0
 10 77  1  0  0  0  0
 11 12  1  0  0  0  0
 11 35  1  0  0  0  0
 11 49  1  0  0  0  0
 12 13  1  0  0  0  0
 12 14  1  0  0  0  0
 13 50  1  0  0  0  0
 13 51  1  0  0  0  0
 14 19  2  0  0  0  0
 14 15  1  0  0  0  0
 15 16  2  0  0  0  0
 16 17  1  0  0  0  0
 16 52  1  0  0  0  0
 17 18  2  0  0  0  0
 17 20  1  0  0  0  0
 18 19  1  0  0  0  0
 18 53  1  0  0  0  0
 20 25  2  0  0  0  0
 20 21  1  0  0  0  0
 21 22  2  0  0  0  0
 21 54  1  0  0  0  0
 22 23  1  0  0  0  0
 22 55  1  0  0  0  0
 23 24  2  0  0  0  0
 23 26  1  0  0  0  0
 24 25  1  0  0  0  0
 24 56  1  0  0  0  0
 25 57  1  0  0  0  0
 26 27  1  0  0  0  0
 27 28  1  0  0  0  0
 27 58  1  0  0  0  0
 27 59  1  0  0  0  0
 28 29  1  0  0  0  0
 28 60  1  0  0  0  0
 28 61  1  0  0  0  0
 29 34  1  0  0  0  0
 29 30  1  0  0  0  0
 29 78  1  0  0  0  0
 30 31  1  0  0  0  0
 30 62  1  0  0  0  0
 30 63  1  0  0  0  0
 31 32  1  0  0  0  0
 31 64  1  0  0  0  0
 31 65  1  0  0  0  0
 32 33  1  0  0  0  0
 33 34  1  0  0  0  0
 33 66  1  0  0  0  0
 33 67  1  0  0  0  0
 34 68  1  0  0  0  0
 34 69  1  0  0  0  0
 35 40  2  0  0  0  0
 35 36  1  0  0  0  0
 36 37  2  0  0  0  0
 36 70  1  0  0  0  0
 37 38  1  0  0  0  0
 37 71  1  0  0  0  0
 38 43  1  0  0  0  0
 38 39  2  0  0  0  0
 39 40  1  0  0  0  0
 39 41  1  0  0  0  0
 40 72  1  0  0  0  0
 41 42  1  0  0  0  0
 41 73  1  0  0  0  0
 41 74  1  0  0  0  0
 42 43  1  0  0  0  0
 42 75  1  0  0  0  0
 42 76  1  0  0  0  0
M  CHG  1  29   1
M  END
$$$$
CHEMBL466280
  -OEChem-07121202283D

 57 60  0     1  0  0  0  0  0999 V2000
    0.2004    1.4213   -0.5348 C   0  0  0  0  0  0  0  0  0  0  0  0
    0.2306   -0.1084   -0.5177 C   0  0  0  0  0  0  0  0  0  0  0  0
   -1.1993   -0.6475   -0.5927 C   0  0  0  0  0  0  0  0  0  0  0  0
    1.0187   -0.6085   -1.7009 C   0  0  0  0  0  0  0  0  0  0  0  0
    2.1788   -1.4020   -1.6369 C   0  0  0  0  0  0  0  0  0  0  0  0
    2.5861   -1.6380   -2.9551 C   0  0  0  0  0  0  0  0  0  0  0  0
    3.7439   -2.4204   -3.1767 C   0  0  0  0  0  0  0  0  0  0  0  0
    4.1352   -2.6510   -4.3077 O   0  0  0  0  0  0  0  0  0  0  0  0
    4.4051   -2.9051   -2.1023 N   0  0  0  0  0  0  0  0  0  0  0  0
    5.2016   -3.4438   -2.2302 H   0  0  0  0  0  0  0  0  0  0  0  0
    3.9630   -2.6435   -0.8442 C   0  0  0  0  0  0  0  0  0  0  0  0
    2.9018   -1.9272   -0.6162 N   0  0  0  0  0  0  0  0  0  0  0  0
    4.7285   -3.2030    0.3270 C   0  0  0  0  0  0  0  0  0  0  0  0
    4.0477   -2.7800    1.6303 C   0  0  2  0  0  0  0  0  0  0  0  0
    3.0015   -3.0849    1.6093 H   0  0  0  0  0  0  0  0  0  0  0  0
    4.1330   -1.2597    1.7801 C   0  0  0  0  0  0  0  0  0  0  0  0
    3.4523   -0.8367    3.0833 C   0  0  0  0  0  0  0  0  0  0  0  0
    4.1548   -1.5059    4.2663 C   0  0  0  0  0  0  0  0  0  0  0  0
    4.0695   -3.0262    4.1165 C   0  0  0  0  0  0  0  0  0  0  0  0
    4.7503   -3.4492    2.8133 C   0  0  1  0  0  0  0  0  0  0  0  0
    5.7966   -3.1443    2.8343 H   0  0  0  0  0  0  0  0  0  0  0  0
    4.6686   -4.9049    2.6698 N   0  0  0  0  0  0  0  0  0  0  0  0
    5.6124   -5.7105    3.2698 C   0  0  0  0  0  0  0  0  0  0  0  0
    6.5837   -5.1472    3.9775 N   0  0  0  0  0  0  0  0  0  0  0  0
    7.5060   -5.8826    4.5677 C   0  0  0  0  0  0  0  0  0  0  0  0
    7.4485   -7.2784    4.4381 C   0  0  0  0  0  0  0  0  0  0  0  0
    6.4053   -7.8322    3.6814 C   0  0  0  0  0  0  0  0  0  0  0  0
    5.5198   -7.0265    3.1273 N   0  0  0  0  0  0  0  0  0  0  0  0
    6.2949   -9.3252    3.5084 C   0  0  0  0  0  0  0  0  0  0  0  0
    6.0963   -9.9258    4.7562 F   0  0  0  0  0  0  0  0  0  0  0  0
    5.2126   -9.6189    2.6720 F   0  0  0  0  0  0  0  0  0  0  0  0
    7.4731   -9.8168    2.9364 F   0  0  0  0  0  0  0  0  0  0  0  0
    8.4562   -8.1387    5.0788 C   0  0  0  0  0  0  0  0  0  0  0  0
    9.4177   -7.6372    5.6451 O   0  0  0  0  0  0  0  0  0  0  0  0
    8.3324   -9.3554    5.0450 O   0  5  0  0  0  0  0  0  0  0  0  0
    1.6919   -1.0021   -3.7690 N   0  0  0  0  0  0  0  0  0  0  0  0
    1.7133   -0.9865   -4.7386 H   0  0  0  0  0  0  0  0  0  0  0  0
    0.7346   -0.3817   -2.9553 N   0  0  0  0  0  0  0  0  0  0  0  0
    1.2191    1.8054   -0.4814 H   0  0  0  0  0  0  0  0  0  0  0  0
   -0.2697    1.7651   -1.4561 H   0  0  0  0  0  0  0  0  0  0  0  0
   -0.3696    1.7830    0.3209 H   0  0  0  0  0  0  0  0  0  0  0  0
    0.7007   -0.4522    0.4036 H   0  0  0  0  0  0  0  0  0  0  0  0
   -1.6695   -0.3036   -1.5140 H   0  0  0  0  0  0  0  0  0  0  0  0
   -1.1778   -1.7372   -0.5805 H   0  0  0  0  0  0  0  0  0  0  0  0
   -1.7693   -0.2858    0.2631 H   0  0  0  0  0  0  0  0  0  0  0  0
    4.7464   -4.2910    0.2630 H   0  0  0  0  0  0  0  0  0  0  0  0
    5.7493   -2.8212    0.3098 H   0  0  0  0  0  0  0  0  0  0  0  0
    5.1793   -0.9548    1.8011 H   0  0  0  0  0  0  0  0  0  0  0  0
    3.6325   -0.7829    0.9373 H   0  0  0  0  0  0  0  0  0  0  0  0
    3.5130    0.2464    3.1900 H   0  0  0  0  0  0  0  0  0  0  0  0
    2.4060   -1.1416    3.0623 H   0  0  0  0  0  0  0  0  0  0  0  0
    5.2011   -1.2010    4.2873 H   0  0  0  0  0  0  0  0  0  0  0  0
    3.6698   -1.2045    5.1948 H   0  0  0  0  0  0  0  0  0  0  0  0
    4.5701   -3.5029    4.9593 H   0  0  0  0  0  0  0  0  0  0  0  0
    3.0233   -3.3310    4.0955 H   0  0  0  0  0  0  0  0  0  0  0  0
    3.9504   -5.3017    2.1526 H   0  0  0  0  0  0  0  0  0  0  0  0
    8.2937   -5.4173    5.1417 H   0  0  0  0  0  0  0  0  0  0  0  0
  1  2  1  0  0  0  0
  1 39  1  0  0  0  0
  1 40  1  0  0  0  0
  1 41  1  0  0  0  0
  2  3  1  0  0  0  0
  2  4  1  0  0  0  0
  2 42  1  0  0  0  0
  3 43  1  0  0  0  0
  3 44  1  0  0  0  0
  3 45  1  0  0  0  0
  4 38  2  0  0  0  0
  4  5  1  0  0  0  0
  5 12  1  0  0  0  0
  5  6  2  0  0  0  0
  6  7  1  0  0  0  0
  6 36  1  0  0  0  0
  7  8  2  0  0  0  0
  7  9  1  0  0  0  0
  9 10  1  0  0  0  0
  9 11  1  0  0  0  0
 11 12  2  0  0  0  0
 11 13  1  0  0  0  0
 13 14  1  0  0  0  0
 13 46  1  0  0  0  0
 13 47  1  0  0  0  0
 14 15  1  0  0  0  0
 14 20  1  0  0  0  0
 14 16  1  0  0  0  0
 16 17  1  0  0  0  0
 16 48  1  0  0  0  0
 16 49  1  0  0  0  0
 17 18  1  0  0  0  0
 17 50  1  0  0  0  0
 17 51  1  0  0  0  0
 18 19  1  0  0  0  0
 18 52  1  0  0  0  0
 18 53  1  0  0  0  0
 19 20  1  0  0  0  0
 19 54  1  0  0  0  0
 19 55  1  0  0  0  0
 20 21  1  0  0  0  0
 20 22  1  0  0  0  0
 22 23  1  0  0  0  0
 22 56  1  0  0  0  0
 23 28  2  0  0  0  0
 23 24  1  0  0  0  0
 24 25  2  0  0  0  0
 25 26  1  0  0  0  0
 25 57  1  0  0  0  0
 26 27  2  0  0  0  0
 26 33  1  0  0  0  0
 27 28  1  0  0  0  0
 27 29  1  0  0  0  0
 29 30  1  0  0  0  0
 29 31  1  0  0  0  0
 29 32  1  0  0  0  0
 33 34  2  0  0  0  0
 33 35  1  0  0  0  0
 36 37  1  0  0  0  0
 36 38  1  0  0  0  0
M  CHG  1  35  -1
M  END
$$$$
CHEMBL466280
  -OEChem-07121202283D

 57 60  0     1  0  0  0  0  0999 V2000
   -0.6002    1.4197    0.1140 C   0  0  0  0  0  0  0  0  0  0  0  0
   -0.5621   -0.1096    0.0863 C   0  0  0  0  0  0  0  0  0  0  0  0
    0.1008   -0.6264    1.3647 C   0  0  0  0  0  0  0  0  0  0  0  0
   -1.9677   -0.6456   -0.0027 C   0  0  0  0  0  0  0  0  0  0  0  0
   -2.4739   -1.4266   -0.9966 C   0  0  0  0  0  0  0  0  0  0  0  0
   -3.8728   -1.6655   -0.6023 C   0  0  0  0  0  0  0  0  0  0  0  0
   -4.6900   -2.4942   -1.4996 C   0  0  0  0  0  0  0  0  0  0  0  0
   -5.8551   -2.7395   -1.2478 O   0  0  0  0  0  0  0  0  0  0  0  0
   -4.0960   -2.9733   -2.6172 N   0  0  0  0  0  0  0  0  0  0  0  0
   -4.6102   -3.5234   -3.2287 H   0  0  0  0  0  0  0  0  0  0  0  0
   -2.7927   -2.7003   -2.9029 C   0  0  0  0  0  0  0  0  0  0  0  0
   -2.0210   -1.9777   -2.1528 N   0  0  0  0  0  0  0  0  0  0  0  0
   -2.2113   -3.2746   -4.1690 C   0  0  0  0  0  0  0  0  0  0  0  0
   -0.7471   -2.8496   -4.2965 C   0  0  2  0  0  0  0  0  0  0  0  0
   -0.2043   -3.1417   -3.3976 H   0  0  0  0  0  0  0  0  0  0  0  0
   -0.6698   -1.3312   -4.4681 C   0  0  0  0  0  0  0  0  0  0  0  0
    0.7944   -0.9062   -4.5956 C   0  0  0  0  0  0  0  0  0  0  0  0
    1.4196   -1.5894   -5.8135 C   0  0  0  0  0  0  0  0  0  0  0  0
    1.3424   -3.1078   -5.6419 C   0  0  0  0  0  0  0  0  0  0  0  0
   -0.1219   -3.5329   -5.5144 C   0  0  1  0  0  0  0  0  0  0  0  0
   -0.6646   -3.2407   -6.4134 H   0  0  0  0  0  0  0  0  0  0  0  0
   -0.1958   -4.9868   -5.3501 N   0  0  0  0  0  0  0  0  0  0  0  0
   -0.1918   -5.8065   -6.4581 C   0  0  0  0  0  0  0  0  0  0  0  0
   -0.1150   -5.2584   -7.6644 N   0  0  0  0  0  0  0  0  0  0  0  0
   -0.1080   -6.0076   -8.7499 C   0  0  0  0  0  0  0  0  0  0  0  0
   -0.1833   -7.4020   -8.6142 C   0  0  0  0  0  0  0  0  0  0  0  0
   -0.2632   -7.9396   -7.3211 C   0  0  0  0  0  0  0  0  0  0  0  0
   -0.2595   -7.1207   -6.2868 N   0  0  0  0  0  0  0  0  0  0  0  0
   -0.3466   -9.4303   -7.1162 C   0  0  0  0  0  0  0  0  0  0  0  0
    0.8153  -10.0344   -7.6083 F   0  0  0  0  0  0  0  0  0  0  0  0
   -0.4735   -9.7069   -5.7507 F   0  0  0  0  0  0  0  0  0  0  0  0
   -1.4590   -9.9334   -7.7993 F   0  0  0  0  0  0  0  0  0  0  0  0
   -0.1790   -8.2775   -9.7973 C   0  0  0  0  0  0  0  0  0  0  0  0
   -0.2162   -7.7903  -10.9189 O   0  0  0  0  0  0  0  0  0  0  0  0
   -0.1384   -9.4924   -9.6591 O   0  5  0  0  0  0  0  0  0  0  0  0
   -4.0471   -1.0325    0.5315 N   0  0  0  0  0  0  0  0  0  0  0  0
   -2.8644    0.0758    1.7023 H   0  0  0  0  0  0  0  0  0  0  0  0
   -2.9594   -0.4466    0.8905 N   0  0  0  0  0  0  0  0  0  0  0  0
    0.4165    1.8074    0.1783 H   0  0  0  0  0  0  0  0  0  0  0  0
   -1.0725    1.7879   -0.7968 H   0  0  0  0  0  0  0  0  0  0  0  0
   -1.1718    1.7533    0.9800 H   0  0  0  0  0  0  0  0  0  0  0  0
    0.0095   -0.4432   -0.7798 H   0  0  0  0  0  0  0  0  0  0  0  0
   -0.4708   -0.2929    2.2308 H   0  0  0  0  0  0  0  0  0  0  0  0
    0.1280   -1.7159    1.3450 H   0  0  0  0  0  0  0  0  0  0  0  0
    1.1175   -0.2387    1.4291 H   0  0  0  0  0  0  0  0  0  0  0  0
   -2.2723   -4.3624   -4.1361 H   0  0  0  0  0  0  0  0  0  0  0  0
   -2.7729   -2.9051   -5.0270 H   0  0  0  0  0  0  0  0  0  0  0  0
   -1.2126   -1.0391   -5.3671 H   0  0  0  0  0  0  0  0  0  0  0  0
   -1.1153   -0.8444   -3.6005 H   0  0  0  0  0  0  0  0  0  0  0  0
    0.8494    0.1756   -4.7178 H   0  0  0  0  0  0  0  0  0  0  0  0
    1.3371   -1.1983   -3.6966 H   0  0  0  0  0  0  0  0  0  0  0  0
    0.8769   -1.2973   -6.7125 H   0  0  0  0  0  0  0  0  0  0  0  0
    2.4627   -1.2866   -5.9043 H   0  0  0  0  0  0  0  0  0  0  0  0
    1.7878   -3.5946   -6.5095 H   0  0  0  0  0  0  0  0  0  0  0  0
    1.8851   -3.4000   -4.7429 H   0  0  0  0  0  0  0  0  0  0  0  0
   -0.2475   -5.3724   -4.4616 H   0  0  0  0  0  0  0  0  0  0  0  0
   -0.0455   -5.5546   -9.7283 H   0  0  0  0  0  0  0  0  0  0  0  0
  1  2  1  0  0  0  0
  1 39  1  0  0  0  0
  1 40  1  0  0  0  0
  1 41  1  0  0  0  0
  2  3  1  0  0  0  0
  2  4  1  0  0  0  0
  2 42  1  0  0  0  0
  3 43  1  0  0  0  0
  3 44  1  0  0  0  0
  3 45  1  0  0  0  0
  4  5  2  0  0  0  0
  4 38  1  0  0  0  0
  5 12  1  0  0  0  0
  5  6  1  0  0  0  0
  6  7  1  0  0  0  0
  6 36  2  0  0  0  0
  7  8  2  0  0  0  0
  7  9  1  0  0  0  0
  9 10  1  0  0  0  0
  9 11  1  0  0  0  0
 11 12  2  0  0  0  0
 11 13  1  0  0  0  0
 13 14  1  0  0  0  0
 13 46  1  0  0  0  0
 13 47  1  0  0  0  0
 14 15  1  0  0  0  0
 14 20  1  0  0  0  0
 14 16  1  0  0  0  0
 16 17  1  0  0  0  0
 16 48  1  0  0  0  0
 16 49  1  0  0  0  0
 17 18  1  0  0  0  0
 17 50  1  0  0  0  0
 17 51  1  0  0  0  0
 18 19  1  0  0  0  0
 18 52  1  0  0  0  0
 18 53  1  0  0  0  0
 19 20  1  0  0  0  0
 19 54  1  0  0  0  0
 19 55  1  0  0  0  0
 20 21  1  0  0  0  0
 20 22  1  0  0  0  0
 22 23  1  0  0  0  0
 22 56  1  0  0  0  0
 23 28  2  0  0  0  0
 23 24  1  0  0  0  0
 24 25  2  0  0  0  0
 25 26  1  0  0  0  0
 25 57  1  0  0  0  0
 26 27  2  0  0  0  0
 26 33  1  0  0  0  0
 27 28  1  0  0  0  0
 27 29  1  0  0  0  0
 29 30  1  0  0  0  0
 29 31  1  0  0  0  0
 29 32  1  0  0  0  0
 33 34  2  0  0  0  0
 33 35  1  0  0  0  0
 36 38  1  0  0  0  0
 37 38  1  0  0  0  0
M  CHG  1  35  -1
M  END
$$$$
CHEMBL567470
  -OEChem-07121202283D

 64 67  0     0  0  0  0  0  0999 V2000
   -0.0187    1.5258    0.0104 C   0  0  0  0  0  0  0  0  0  0  0  0
    0.0021   -0.0041    0.0020 C   0  0  0  0  0  0  0  0  0  0  0  0
    0.7182   -0.4975   -1.2568 C   0  0  0  0  0  0  0  0  0  0  0  0
    0.7376   -1.9263   -1.2646 O   0  0  0  0  0  0  0  0  0  0  0  0
    1.3873   -2.4925   -2.4045 C   0  0  0  0  0  0  0  0  0  0  0  0
    1.3486   -4.0190   -2.3077 C   0  0  0  0  0  0  0  0  0  0  0  0
   -0.0404   -4.4782   -2.3855 N   0  0  0  0  0  0  0  0  0  0  0  0
   -0.7985   -4.6151   -1.2416 C   0  0  0  0  0  0  0  0  0  0  0  0
   -0.2676   -4.3226    0.0096 C   0  0  0  0  0  0  0  0  0  0  0  0
   -1.0732   -4.4766    1.1322 C   0  0  0  0  0  0  0  0  0  0  0  0
   -2.3312   -4.8964    1.0220 N   0  0  0  0  0  0  0  0  0  0  0  0
   -2.8751   -5.1844   -0.1385 C   0  0  0  0  0  0  0  0  0  0  0  0
   -2.1345   -5.0568   -1.3218 C   0  0  0  0  0  0  0  0  0  0  0  0
   -2.6890   -5.3508   -2.5140 N   0  0  0  0  0  0  0  0  0  0  0  0
   -2.0015   -5.2333   -3.6220 C   0  0  0  0  0  0  0  0  0  0  0  0
   -0.6020   -4.7693   -3.5802 C   0  0  0  0  0  0  0  0  0  0  0  0
    0.0399   -4.6535   -4.6077 O   0  0  0  0  0  0  0  0  0  0  0  0
   -2.5906   -5.5407   -4.8356 N   0  0  0  0  0  0  0  0  0  0  0  0
   -3.9821   -5.9969   -4.8797 C   0  0  0  0  0  0  0  0  0  0  0  0
   -4.0315   -7.5072   -4.6399 C   0  0  0  0  0  0  0  0  0  0  0  0
   -5.4847   -7.9836   -4.6859 C   0  0  0  0  0  0  0  0  0  0  0  0
   -6.0826   -7.6653   -6.0578 C   0  0  0  0  0  0  0  0  0  0  0  0
   -6.0332   -6.1550   -6.2977 C   0  0  0  0  0  0  0  0  0  0  0  0
   -4.5800   -5.6785   -6.2516 C   0  0  0  0  0  0  0  0  0  0  0  0
   -7.4398   -8.1103   -6.1008 O   0  0  0  0  0  0  0  0  0  0  0  0
   -0.5220   -4.1688    2.4731 C   0  0  0  0  0  0  0  0  0  0  0  0
   -1.2760   -4.4203    3.6257 C   0  0  0  0  0  0  0  0  0  0  0  0
   -0.7199   -4.1169    4.8528 C   0  0  0  0  0  0  0  0  0  0  0  0
    0.5601   -3.5760    4.9035 C   0  0  0  0  0  0  0  0  0  0  0  0
    1.2467   -3.3498    3.7954 N   0  0  0  0  0  0  0  0  0  0  0  0
    0.7557   -3.6306    2.6051 C   0  0  0  0  0  0  0  0  0  0  0  0
    1.1121   -3.2757    6.1054 O   0  0  0  0  0  0  0  0  0  0  0  0
    2.4297   -2.7225    6.0941 C   0  0  0  0  0  0  0  0  0  0  0  0
    1.0039    1.9031    0.0027 H   0  0  0  0  0  0  0  0  0  0  0  0
   -0.5459    1.8868   -0.8726 H   0  0  0  0  0  0  0  0  0  0  0  0
   -0.5289    1.8773    0.9072 H   0  0  0  0  0  0  0  0  0  0  0  0
    0.5293   -0.3651    0.8851 H   0  0  0  0  0  0  0  0  0  0  0  0
   -1.0205   -0.3814    0.0098 H   0  0  0  0  0  0  0  0  0  0  0  0
    0.1910   -0.1364   -2.1398 H   0  0  0  0  0  0  0  0  0  0  0  0
    1.7408   -0.1202   -1.2645 H   0  0  0  0  0  0  0  0  0  0  0  0
    0.8740   -2.1729   -3.3114 H   0  0  0  0  0  0  0  0  0  0  0  0
    2.4238   -2.1566   -2.4361 H   0  0  0  0  0  0  0  0  0  0  0  0
    1.9203   -4.4498   -3.1297 H   0  0  0  0  0  0  0  0  0  0  0  0
    1.7828   -4.3340   -1.3589 H   0  0  0  0  0  0  0  0  0  0  0  0
    0.7526   -3.9821    0.1078 H   0  0  0  0  0  0  0  0  0  0  0  0
   -3.9000   -5.5223   -0.1812 H   0  0  0  0  0  0  0  0  0  0  0  0
   -2.0824   -5.4541   -5.6573 H   0  0  0  0  0  0  0  0  0  0  0  0
   -4.5563   -5.4872   -4.1060 H   0  0  0  0  0  0  0  0  0  0  0  0
   -3.4573   -8.0169   -5.4136 H   0  0  0  0  0  0  0  0  0  0  0  0
   -3.6056   -7.7340   -3.6625 H   0  0  0  0  0  0  0  0  0  0  0  0
   -5.5199   -9.0596   -4.5151 H   0  0  0  0  0  0  0  0  0  0  0  0
   -6.0588   -7.4739   -3.9122 H   0  0  0  0  0  0  0  0  0  0  0  0
   -5.5084   -8.1750   -6.8315 H   0  0  0  0  0  0  0  0  0  0  0  0
   -6.4591   -5.9282   -7.2750 H   0  0  0  0  0  0  0  0  0  0  0  0
   -6.6073   -5.6453   -5.5240 H   0  0  0  0  0  0  0  0  0  0  0  0
   -4.5448   -4.6026   -6.4225 H   0  0  0  0  0  0  0  0  0  0  0  0
   -4.0058   -6.1882   -7.0253 H   0  0  0  0  0  0  0  0  0  0  0  0
   -7.8829   -7.9405   -6.9434 H   0  0  0  0  0  0  0  0  0  0  0  0
   -2.2683   -4.8410    3.5568 H   0  0  0  0  0  0  0  0  0  0  0  0
   -1.2730   -4.2974    5.7627 H   0  0  0  0  0  0  0  0  0  0  0  0
    1.3481   -3.4370    1.7231 H   0  0  0  0  0  0  0  0  0  0  0  0
    2.4269   -1.7889    5.5316 H   0  0  0  0  0  0  0  0  0  0  0  0
    2.7513   -2.5292    7.1175 H   0  0  0  0  0  0  0  0  0  0  0  0
    3.1157   -3.4275    5.6246 H   0  0  0  0  0  0  0  0  0  0  0  0
  1  2  1  0  0  0  0
  1 34  1  0  0  0  0
  1 35  1  0  0  0  0
  1 36  1  0  0  0  0
  2  3  1  0  0  0  0
  2 37  1  0  0  0  0
  2 38  1  0  0  0  0
  3  4  1  0  0  0  0
  3 39  1  0  0  0  0
  3 40  1  0  0  0  0
  4  5  1  0  0  0  0
  5  6  1  0  0  0  0
  5 41  1  0  0  0  0
  5 42  1  0  0  0  0
  6  7  1  0  0  0  0
  6 43  1  0  0  0  0
  6 44  1  0  0  0  0
  7 16  1  0  0  0  0
  7  8  1  0  0  0  0
  8 13  2  0  0  0  0
  8  9  1  0  0  0  0
  9 10  2  0  0  0  0
  9 45  1  0  0  0  0
 10 11  1  0  0  0  0
 10 26  1  0  0  0  0
 11 12  2  0  0  0  0
 12 13  1  0  0  0  0
 12 46  1  0  0  0  0
 13 14  1  0  0  0  0
 14 15  2  0  0  0  0
 15 16  1  0  0  0  0
 15 18  1  0  0  0  0
 16 17  2  0  0  0  0
 18 19  1  0  0  0  0
 18 47  1  0  0  0  0
 19 24  1  0  0  0  0
 19 20  1  0  0  0  0
 19 48  1  0  0  0  0
 20 21  1  0  0  0  0
 20 49  1  0  0  0  0
 20 50  1  0  0  0  0
 21 22  1  0  0  0  0
 21 51  1  0  0  0  0
 21 52  1  0  0  0  0
 22 23  1  0  0  0  0
 22 25  1  0  0  0  0
 22 53  1  0  0  0  0
 23 24  1  0  0  0  0
 23 54  1  0  0  0  0
 23 55  1  0  0  0  0
 24 56  1  0  0  0  0
 24 57  1  0  0  0  0
 25 58  1  0  0  0  0
 26 31  2  0  0  0  0
 26 27  1  0  0  0  0
 27 28  2  0  0  0  0
 27 59  1  0  0  0  0
 28 29  1  0  0  0  0
 28 60  1  0  0  0  0
 29 30  2  0  0  0  0
 29 32  1  0  0  0  0
 30 31  1  0  0  0  0
 31 61  1  0  0  0  0
 32 33  1  0  0  0  0
 33 62  1  0  0  0  0
 33 63  1  0  0  0  0
 33 64  1  0  0  0  0
M  END
$$$$
CHEMBL397116
  -OEChem-07121202283D

 54 60  0     1  0  0  0  0  0999 V2000
    0.3737    0.9990    2.6094 C   0  0  0  0  0  0  0  0  0  0  0  0
    1.4834    1.7958    2.3797 C   0  0  0  0  0  0  0  0  0  0  0  0
    2.6225    1.3146    1.7579 C   0  0  0  0  0  0  0  0  0  0  0  0
    2.6102   -0.0223    1.3653 C   0  0  0  0  0  0  0  0  0  0  0  0
    1.4706   -0.8332    1.6020 C   0  0  0  0  0  0  0  0  0  0  0  0
    0.3331   -0.3209    2.2334 C   0  0  0  0  0  0  0  0  0  0  0  0
    1.7945   -2.1427    1.0735 C   0  0  0  0  0  0  0  0  0  0  0  0
    3.0452   -2.0671    0.5696 C   0  0  0  0  0  0  0  0  0  0  0  0
    3.5417   -0.8024    0.7429 N   0  0  0  0  0  0  0  0  0  0  0  0
    4.4225   -0.5058    0.4653 H   0  0  0  0  0  0  0  0  0  0  0  0
    3.7527   -3.2309   -0.0866 C   0  0  2  0  0  0  0  0  0  0  0  0
    3.8135   -3.0681   -1.1627 H   0  0  0  0  0  0  0  0  0  0  0  0
    2.9602   -4.4471    0.1934 N   0  0  0  0  0  0  0  0  0  0  0  0
    1.5088   -4.3686    0.0328 C   0  0  2  0  0  0  0  0  0  0  0  0
    1.2849   -3.9979   -0.9675 H   0  0  0  0  0  0  0  0  0  0  0  0
    0.9400   -3.3844    1.0646 C   0  0  0  0  0  0  0  0  0  0  0  0
    0.8506   -5.6983    0.2135 C   0  0  0  0  0  0  0  0  0  0  0  0
   -0.3431   -5.7731    0.0122 O   0  0  0  0  0  0  0  0  0  0  0  0
    1.4915   -6.8061    0.5810 N   0  0  0  0  0  0  0  0  0  0  0  0
    2.9188   -6.8628    0.8494 C   0  0  0  0  0  0  0  0  0  0  0  0
    3.5921   -5.5573    0.5797 C   0  0  0  0  0  0  0  0  0  0  0  0
    4.7914   -5.4954    0.7492 O   0  0  0  0  0  0  0  0  0  0  0  0
    0.7478   -7.9838    0.7170 C   0  0  0  0  0  0  0  0  0  0  0  0
    0.5783   -8.8418   -0.3671 C   0  0  0  0  0  0  0  0  0  0  0  0
   -0.1656   -9.9955   -0.1831 C   0  0  0  0  0  0  0  0  0  0  0  0
   -0.7114  -10.2559    1.0604 C   0  0  0  0  0  0  0  0  0  0  0  0
   -0.5325   -9.4230    2.0668 N   0  0  0  0  0  0  0  0  0  0  0  0
    0.1728   -8.3171    1.9361 C   0  0  0  0  0  0  0  0  0  0  0  0
    5.1383   -3.3775    0.4878 C   0  0  0  0  0  0  0  0  0  0  0  0
    6.2301   -3.4573   -0.3566 C   0  0  0  0  0  0  0  0  0  0  0  0
    7.5030   -3.5913    0.1655 C   0  0  0  0  0  0  0  0  0  0  0  0
    7.6874   -3.6466    1.5376 C   0  0  0  0  0  0  0  0  0  0  0  0
    6.5876   -3.5663    2.3881 C   0  0  0  0  0  0  0  0  0  0  0  0
    5.3152   -3.4262    1.8579 C   0  0  0  0  0  0  0  0  0  0  0  0
    7.0271   -3.6434    3.6781 O   0  0  0  0  0  0  0  0  0  0  0  0
    8.3604   -4.1812    3.5984 C   0  0  0  0  0  0  0  0  0  0  0  0
    8.8161   -3.7739    2.2947 O   0  0  0  0  0  0  0  0  0  0  0  0
   -0.4851    1.4284    3.1039 H   0  0  0  0  0  0  0  0  0  0  0  0
    1.4587    2.8280    2.6964 H   0  0  0  0  0  0  0  0  0  0  0  0
    3.4811    1.9464    1.5846 H   0  0  0  0  0  0  0  0  0  0  0  0
   -0.5366   -0.9346    2.4167 H   0  0  0  0  0  0  0  0  0  0  0  0
    0.9525   -3.8436    2.0531 H   0  0  0  0  0  0  0  0  0  0  0  0
   -0.0828   -3.1221    0.7943 H   0  0  0  0  0  0  0  0  0  0  0  0
    3.0723   -7.1423    1.8917 H   0  0  0  0  0  0  0  0  0  0  0  0
    3.3695   -7.6224    0.2107 H   0  0  0  0  0  0  0  0  0  0  0  0
    1.0160   -8.6129   -1.3275 H   0  0  0  0  0  0  0  0  0  0  0  0
   -0.3180  -10.6835   -1.0015 H   0  0  0  0  0  0  0  0  0  0  0  0
   -1.2927  -11.1539    1.2092 H   0  0  0  0  0  0  0  0  0  0  0  0
    0.3010   -7.6614    2.7846 H   0  0  0  0  0  0  0  0  0  0  0  0
    6.0882   -3.4151   -1.4264 H   0  0  0  0  0  0  0  0  0  0  0  0
    8.3541   -3.6533   -0.4964 H   0  0  0  0  0  0  0  0  0  0  0  0
    4.4609   -3.3592    2.5152 H   0  0  0  0  0  0  0  0  0  0  0  0
    8.9931   -3.7533    4.3761 H   0  0  0  0  0  0  0  0  0  0  0  0
    8.3402   -5.2683    3.6748 H   0  0  0  0  0  0  0  0  0  0  0  0
  1  6  2  0  0  0  0
  1  2  1  0  0  0  0
  1 38  1  0  0  0  0
  2  3  2  0  0  0  0
  2 39  1  0  0  0  0
  3  4  1  0  0  0  0
  3 40  1  0  0  0  0
  4  9  1  0  0  0  0
  4  5  2  0  0  0  0
  5  6  1  0  0  0  0
  5  7  1  0  0  0  0
  6 41  1  0  0  0  0
  7 16  1  0  0  0  0
  7  8  2  0  0  0  0
  8  9  1  0  0  0  0
  8 11  1  0  0  0  0
  9 10  1  0  0  0  0
 11 12  1  0  0  0  0
 11 13  1  0  0  0  0
 11 29  1  0  0  0  0
 13 21  1  0  0  0  0
 13 14  1  0  0  0  0
 14 15  1  0  0  0  0
 14 16  1  0  0  0  0
 14 17  1  0  0  0  0
 16 42  1  0  0  0  0
 16 43  1  0  0  0  0
 17 18  2  0  0  0  0
 17 19  1  0  0  0  0
 19 20  1  0  0  0  0
 19 23  1  0  0  0  0
 20 21  1  0  0  0  0
 20 44  1  0  0  0  0
 20 45  1  0  0  0  0
 21 22  2  0  0  0  0
 23 28  2  0  0  0  0
 23 24  1  0  0  0  0
 24 25  2  0  0  0  0
 24 46  1  0  0  0  0
 25 26  1  0  0  0  0
 25 47  1  0  0  0  0
 26 27  2  0  0  0  0
 26 48  1  0  0  0  0
 27 28  1  0  0  0  0
 28 49  1  0  0  0  0
 29 34  2  0  0  0  0
 29 30  1  0  0  0  0
 30 31  2  0  0  0  0
 30 50  1  0  0  0  0
 31 32  1  0  0  0  0
 31 51  1  0  0  0  0
 32 37  1  0  0  0  0
 32 33  2  0  0  0  0
 33 34  1  0  0  0  0
 33 35  1  0  0  0  0
 34 52  1  0  0  0  0
 35 36  1  0  0  0  0
 36 37  1  0  0  0  0
 36 53  1  0  0  0  0
 36 54  1  0  0  0  0
M  END
$$$$
CHEMBL561952
  -OEChem-07121202283D

 63 66  0     0  0  0  0  0  0999 V2000
   -0.0178    1.4608    0.0101 C   0  0  0  0  0  0  0  0  0  0  0  0
    0.0021   -0.0041    0.0020 N   0  0  0  0  0  0  0  0  0  0  0  0
    0.0241   -0.7433    1.2666 C   0  0  0  0  0  0  0  0  0  0  0  0
    0.0001   -0.6716   -1.1688 C   0  0  0  0  0  0  0  0  0  0  0  0
   -0.0182   -0.0596   -2.2157 O   0  0  0  0  0  0  0  0  0  0  0  0
    0.0205   -2.1784   -1.1771 C   0  0  0  0  0  0  0  0  0  0  0  0
    0.0139   -2.6593   -2.5609 N   0  0  0  0  0  0  0  0  0  0  0  0
    0.0300   -4.0185   -2.8213 C   0  0  0  0  0  0  0  0  0  0  0  0
    0.0295   -4.5031   -4.2137 C   0  0  0  0  0  0  0  0  0  0  0  0
    0.0154   -3.7140   -5.1403 O   0  0  0  0  0  0  0  0  0  0  0  0
    0.0452   -5.8326   -4.4488 N   0  0  0  0  0  0  0  0  0  0  0  0
    0.0614   -6.7052   -3.3791 C   0  0  0  0  0  0  0  0  0  0  0  0
    0.0613   -6.2020   -2.0640 C   0  0  0  0  0  0  0  0  0  0  0  0
    0.0510   -4.8753   -1.8311 N   0  0  0  0  0  0  0  0  0  0  0  0
    0.0779   -7.1056   -0.9876 C   0  0  0  0  0  0  0  0  0  0  0  0
    0.0936   -8.4457   -1.2605 C   0  0  0  0  0  0  0  0  0  0  0  0
    0.0928   -8.8790   -2.5893 C   0  0  0  0  0  0  0  0  0  0  0  0
    0.0774   -8.0126   -3.5926 N   0  0  0  0  0  0  0  0  0  0  0  0
    0.1098  -10.3311   -2.8816 C   0  0  0  0  0  0  0  0  0  0  0  0
    0.2203  -10.7891   -4.2005 C   0  0  0  0  0  0  0  0  0  0  0  0
    0.2319  -12.1519   -4.4230 C   0  0  0  0  0  0  0  0  0  0  0  0
    0.1342  -13.0181   -3.3395 C   0  0  0  0  0  0  0  0  0  0  0  0
    0.0305  -12.5535   -2.1049 N   0  0  0  0  0  0  0  0  0  0  0  0
    0.0220  -11.2611   -1.8481 C   0  0  0  0  0  0  0  0  0  0  0  0
    0.1449  -14.3576   -3.5512 O   0  0  0  0  0  0  0  0  0  0  0  0
    0.0416  -15.1973   -2.3996 C   0  0  0  0  0  0  0  0  0  0  0  0
    0.0446   -6.3429   -5.8220 C   0  0  0  0  0  0  0  0  0  0  0  0
    1.4868   -6.5022   -6.3075 C   0  0  0  0  0  0  0  0  0  0  0  0
    2.1529   -5.1271   -6.3870 C   0  0  0  0  0  0  0  0  0  0  0  0
    3.5951   -5.2864   -6.8725 C   0  0  0  0  0  0  0  0  0  0  0  0
    3.5980   -5.9353   -8.2581 C   0  0  0  0  0  0  0  0  0  0  0  0
    2.9319   -7.3104   -8.1786 C   0  0  0  0  0  0  0  0  0  0  0  0
    1.4897   -7.1511   -7.6931 C   0  0  0  0  0  0  0  0  0  0  0  0
    1.0048    1.8381    0.0023 H   0  0  0  0  0  0  0  0  0  0  0  0
   -0.5450    1.8219   -0.8730 H   0  0  0  0  0  0  0  0  0  0  0  0
   -0.5280    1.8123    0.9069 H   0  0  0  0  0  0  0  0  0  0  0  0
    0.0224   -0.0395    2.0990 H   0  0  0  0  0  0  0  0  0  0  0  0
   -0.8567   -1.3823    1.3294 H   0  0  0  0  0  0  0  0  0  0  0  0
    0.9230   -1.3581    1.3125 H   0  0  0  0  0  0  0  0  0  0  0  0
    0.9202   -2.5324   -0.6737 H   0  0  0  0  0  0  0  0  0  0  0  0
   -0.8595   -2.5566   -0.6569 H   0  0  0  0  0  0  0  0  0  0  0  0
   -0.0016   -2.0251   -3.2947 H   0  0  0  0  0  0  0  0  0  0  0  0
    0.0786   -6.7497    0.0321 H   0  0  0  0  0  0  0  0  0  0  0  0
    0.1070   -9.1644   -0.4544 H   0  0  0  0  0  0  0  0  0  0  0  0
    0.2944  -10.0935   -5.0233 H   0  0  0  0  0  0  0  0  0  0  0  0
    0.3154  -12.5405   -5.4272 H   0  0  0  0  0  0  0  0  0  0  0  0
   -0.0588  -10.9194   -0.8267 H   0  0  0  0  0  0  0  0  0  0  0  0
    0.0623  -16.2423   -2.7088 H   0  0  0  0  0  0  0  0  0  0  0  0
    0.8785  -14.9999   -1.7298 H   0  0  0  0  0  0  0  0  0  0  0  0
   -0.8949  -14.9901   -1.8818 H   0  0  0  0  0  0  0  0  0  0  0  0
   -0.4571   -7.3102   -5.8500 H   0  0  0  0  0  0  0  0  0  0  0  0
   -0.4815   -5.6419   -6.4699 H   0  0  0  0  0  0  0  0  0  0  0  0
    2.0375   -7.1329   -5.6097 H   0  0  0  0  0  0  0  0  0  0  0  0
    1.6022   -4.4964   -7.0848 H   0  0  0  0  0  0  0  0  0  0  0  0
    2.1508   -4.6648   -5.3999 H   0  0  0  0  0  0  0  0  0  0  0  0
    4.0697   -4.3068   -6.9291 H   0  0  0  0  0  0  0  0  0  0  0  0
    4.1458   -5.9171   -6.1747 H   0  0  0  0  0  0  0  0  0  0  0  0
    3.0473   -5.3046   -8.9559 H   0  0  0  0  0  0  0  0  0  0  0  0
    4.6255   -6.0488   -8.6039 H   0  0  0  0  0  0  0  0  0  0  0  0
    2.9340   -7.7727   -9.1657 H   0  0  0  0  0  0  0  0  0  0  0  0
    3.4826   -7.9412   -7.4808 H   0  0  0  0  0  0  0  0  0  0  0  0
    1.0151   -8.1308   -7.6365 H   0  0  0  0  0  0  0  0  0  0  0  0
    0.9390   -6.5204   -8.3909 H   0  0  0  0  0  0  0  0  0  0  0  0
  1  2  1  0  0  0  0
  1 34  1  0  0  0  0
  1 35  1  0  0  0  0
  1 36  1  0  0  0  0
  2  3  1  0  0  0  0
  2  4  1  0  0  0  0
  3 37  1  0  0  0  0
  3 38  1  0  0  0  0
  3 39  1  0  0  0  0
  4  5  2  0  0  0  0
  4  6  1  0  0  0  0
  6  7  1  0  0  0  0
  6 40  1  0  0  0  0
  6 41  1  0  0  0  0
  7  8  1  0  0  0  0
  7 42  1  0  0  0  0
  8 14  2  0  0  0  0
  8  9  1  0  0  0  0
  9 10  2  0  0  0  0
  9 11  1  0  0  0  0
 11 12  1  0  0  0  0
 11 27  1  0  0  0  0
 12 18  2  0  0  0  0
 12 13  1  0  0  0  0
 13 14  1  0  0  0  0
 13 15  2  0  0  0  0
 15 16  1  0  0  0  0
 15 43  1  0  0  0  0
 16 17  2  0  0  0  0
 16 44  1  0  0  0  0
 17 18  1  0  0  0  0
 17 19  1  0  0  0  0
 19 24  2  0  0  0  0
 19 20  1  0  0  0  0
 20 21  2  0  0  0  0
 20 45  1  0  0  0  0
 21 22  1  0  0  0  0
 21 46  1  0  0  0  0
 22 23  2  0  0  0  0
 22 25  1  0  0  0  0
 23 24  1  0  0  0  0
 24 47  1  0  0  0  0
 25 26  1  0  0  0  0
 26 48  1  0  0  0  0
 26 49  1  0  0  0  0
 26 50  1  0  0  0  0
 27 28  1  0  0  0  0
 27 51  1  0  0  0  0
 27 52  1  0  0  0  0
 28 33  1  0  0  0  0
 28 29  1  0  0  0  0
 28 53  1  0  0  0  0
 29 30  1  0  0  0  0
 29 54  1  0  0  0  0
 29 55  1  0  0  0  0
 30 31  1  0  0  0  0
 30 56  1  0  0  0  0
 30 57  1  0  0  0  0
 31 32  1  0  0  0  0
 31 58  1  0  0  0  0
 31 59  1  0  0  0  0
 32 33  1  0  0  0  0
 32 60  1  0  0  0  0
 32 61  1  0  0  0  0
 33 62  1  0  0  0  0
 33 63  1  0  0  0  0
M  END
$$$$
CHEMBL350400
  -OEChem-07121202283D

 61 67  0     1  0  0  0  0  0999 V2000
   -0.8623    0.9622   -0.2931 C   0  0  0  0  0  0  0  0  0  0  0  0
    0.2003    1.8353   -0.4823 C   0  0  0  0  0  0  0  0  0  0  0  0
    1.4939    1.3651   -0.5333 C   0  0  0  0  0  0  0  0  0  0  0  0
    1.7417    0.0037   -0.3940 C   0  0  0  0  0  0  0  0  0  0  0  0
    0.6605   -0.8790   -0.2016 C   0  0  0  0  0  0  0  0  0  0  0  0
   -0.6427   -0.3785   -0.1536 C   0  0  0  0  0  0  0  0  0  0  0  0
    1.2483   -2.2078   -0.0949 C   0  0  0  0  0  0  0  0  0  0  0  0
    2.5842   -2.0707   -0.2204 C   0  0  0  0  0  0  0  0  0  0  0  0
    2.8934   -0.7541   -0.4003 N   0  0  0  0  0  0  0  0  0  0  0  0
    3.7903   -0.4034   -0.5155 H   0  0  0  0  0  0  0  0  0  0  0  0
    3.5397   -3.2400   -0.1593 C   0  0  2  0  0  0  0  0  0  0  0  0
    2.8350   -4.3849    0.4398 N   0  0  2  0  0  0  0  0  0  0  0  0
    1.5562   -4.6441   -0.2365 C   0  0  0  0  0  0  0  0  0  0  0  0
    0.5580   -3.5314    0.1138 C   0  0  0  0  0  0  0  0  0  0  0  0
    2.6369   -4.1853    1.8817 C   0  0  0  0  0  0  0  0  0  0  0  0
    1.9952   -5.4129    2.4753 C   0  0  0  0  0  0  0  0  0  0  0  0
    2.6512   -6.4740    2.9843 C   0  0  0  0  0  0  0  0  0  0  0  0
    1.6751   -7.3885    3.4282 C   0  0  0  0  0  0  0  0  0  0  0  0
    0.4648   -6.8291    3.1628 C   0  0  0  0  0  0  0  0  0  0  0  0
    0.6745   -5.6283    2.5900 O   0  0  0  0  0  0  0  0  0  0  0  0
   -0.8523   -7.4313    3.4574 C   0  0  0  0  0  0  0  0  0  0  0  0
   -0.9295   -8.6845    4.0680 C   0  0  0  0  0  0  0  0  0  0  0  0
   -2.1619   -9.2406    4.3406 C   0  0  0  0  0  0  0  0  0  0  0  0
   -3.3202   -8.5593    4.0103 C   0  0  0  0  0  0  0  0  0  0  0  0
   -3.2508   -7.3174    3.4048 C   0  0  0  0  0  0  0  0  0  0  0  0
   -2.0244   -6.7472    3.1318 C   0  0  0  0  0  0  0  0  0  0  0  0
   -4.5175   -6.5832    3.0479 C   0  0  0  0  0  0  0  0  0  0  0  0
   -5.6241   -7.3523    3.4237 F   0  0  0  0  0  0  0  0  0  0  0  0
   -4.5514   -5.3573    3.7210 F   0  0  0  0  0  0  0  0  0  0  0  0
   -4.5531   -6.3584    1.6675 F   0  0  0  0  0  0  0  0  0  0  0  0
    4.7317   -2.8775    0.6885 C   0  0  0  0  0  0  0  0  0  0  0  0
    5.9646   -3.4440    0.4233 C   0  0  0  0  0  0  0  0  0  0  0  0
    7.0611   -3.1143    1.1979 C   0  0  0  0  0  0  0  0  0  0  0  0
    6.9264   -2.2149    2.2431 C   0  0  0  0  0  0  0  0  0  0  0  0
    5.6844   -1.6444    2.5104 C   0  0  0  0  0  0  0  0  0  0  0  0
    4.5911   -1.9751    1.7262 C   0  0  0  0  0  0  0  0  0  0  0  0
    5.8118   -0.8017    3.5766 O   0  0  0  0  0  0  0  0  0  0  0  0
    7.0487   -1.1721    4.2138 C   0  0  0  0  0  0  0  0  0  0  0  0
    7.8320   -1.7297    3.1419 O   0  0  0  0  0  0  0  0  0  0  0  0
   -1.8706    1.3470   -0.2513 H   0  0  0  0  0  0  0  0  0  0  0  0
    0.0109    2.8930   -0.5909 H   0  0  0  0  0  0  0  0  0  0  0  0
    2.3140    2.0521   -0.6814 H   0  0  0  0  0  0  0  0  0  0  0  0
   -1.4752   -1.0506   -0.0061 H   0  0  0  0  0  0  0  0  0  0  0  0
    3.8693   -3.4976   -1.1658 H   0  0  0  0  0  0  0  0  0  0  0  0
    1.7133   -4.6652   -1.3150 H   0  0  0  0  0  0  0  0  0  0  0  0
    1.1596   -5.6048    0.0918 H   0  0  0  0  0  0  0  0  0  0  0  0
    0.2500   -3.6265    1.1551 H   0  0  0  0  0  0  0  0  0  0  0  0
   -0.3136   -3.5995   -0.5371 H   0  0  0  0  0  0  0  0  0  0  0  0
    3.6007   -4.0117    2.3602 H   0  0  0  0  0  0  0  0  0  0  0  0
    1.9902   -3.3229    2.0436 H   0  0  0  0  0  0  0  0  0  0  0  0
    3.7223   -6.6001    3.0408 H   0  0  0  0  0  0  0  0  0  0  0  0
    1.8541   -8.3485    3.8895 H   0  0  0  0  0  0  0  0  0  0  0  0
   -0.0262   -9.2174    4.3259 H   0  0  0  0  0  0  0  0  0  0  0  0
   -2.2230  -10.2101    4.8125 H   0  0  0  0  0  0  0  0  0  0  0  0
   -4.2827   -8.9992    4.2260 H   0  0  0  0  0  0  0  0  0  0  0  0
   -1.9716   -5.7755    2.6634 H   0  0  0  0  0  0  0  0  0  0  0  0
    6.0713   -4.1458   -0.3906 H   0  0  0  0  0  0  0  0  0  0  0  0
    8.0231   -3.5583    0.9884 H   0  0  0  0  0  0  0  0  0  0  0  0
    3.6277   -1.5307    1.9283 H   0  0  0  0  0  0  0  0  0  0  0  0
    7.5418   -0.2947    4.6322 H   0  0  0  0  0  0  0  0  0  0  0  0
    6.8722   -1.9190    4.9878 H   0  0  0  0  0  0  0  0  0  0  0  0
  1  6  2  0  0  0  0
  1  2  1  0  0  0  0
  1 40  1  0  0  0  0
  2  3  2  0  0  0  0
  2 41  1  0  0  0  0
  3  4  1  0  0  0  0
  3 42  1  0  0  0  0
  4  9  1  0  0  0  0
  4  5  2  0  0  0  0
  5  6  1  0  0  0  0
  5  7  1  0  0  0  0
  6 43  1  0  0  0  0
  7 14  1  0  0  0  0
  7  8  2  0  0  0  0
  8  9  1  0  0  0  0
  8 11  1  0  0  0  0
  9 10  1  0  0  0  0
 11 12  1  0  0  0  0
 11 31  1  0  0  0  0
 11 44  1  0  0  0  0
 12 13  1  0  0  0  0
 12 15  1  0  0  0  0
 13 14  1  0  0  0  0
 13 45  1  0  0  0  0
 13 46  1  0  0  0  0
 14 47  1  0  0  0  0
 14 48  1  0  0  0  0
 15 16  1  0  0  0  0
 15 49  1  0  0  0  0
 15 50  1  0  0  0  0
 16 20  1  0  0  0  0
 16 17  2  0  0  0  0
 17 18  1  0  0  0  0
 17 51  1  0  0  0  0
 18 19  2  0  0  0  0
 18 52  1  0  0  0  0
 19 20  1  0  0  0  0
 19 21  1  0  0  0  0
 21 26  2  0  0  0  0
 21 22  1  0  0  0  0
 22 23  2  0  0  0  0
 22 53  1  0  0  0  0
 23 24  1  0  0  0  0
 23 54  1  0  0  0  0
 24 25  2  0  0  0  0
 24 55  1  0  0  0  0
 25 26  1  0  0  0  0
 25 27  1  0  0  0  0
 26 56  1  0  0  0  0
 27 28  1  0  0  0  0
 27 29  1  0  0  0  0
 27 30  1  0  0  0  0
 31 36  2  0  0  0  0
 31 32  1  0  0  0  0
 32 33  2  0  0  0  0
 32 57  1  0  0  0  0
 33 34  1  0  0  0  0
 33 58  1  0  0  0  0
 34 39  1  0  0  0  0
 34 35  2  0  0  0  0
 35 36  1  0  0  0  0
 35 37  1  0  0  0  0
 36 59  1  0  0  0  0
 37 38  1  0  0  0  0
 38 39  1  0  0  0  0
 38 60  1  0  0  0  0
 38 61  1  0  0  0  0
M  END
$$$$
CHEMBL350400
  -OEChem-07121202283D

 62 68  0     1  0  0  0  0  0999 V2000
    0.2292    1.5701   -1.2095 C   0  0  0  0  0  0  0  0  0  0  0  0
    1.4646    2.1853   -1.3607 C   0  0  0  0  0  0  0  0  0  0  0  0
    2.6295    1.4674   -1.2037 C   0  0  0  0  0  0  0  0  0  0  0  0
    2.5717    0.1135   -0.8910 C   0  0  0  0  0  0  0  0  0  0  0  0
    1.3159   -0.5073   -0.7385 C   0  0  0  0  0  0  0  0  0  0  0  0
    0.1482    0.2418   -0.9024 C   0  0  0  0  0  0  0  0  0  0  0  0
    1.5993   -1.8998   -0.4199 C   0  0  0  0  0  0  0  0  0  0  0  0
    2.9403   -2.0454   -0.3950 C   0  0  0  0  0  0  0  0  0  0  0  0
    3.5342   -0.8501   -0.6759 N   0  0  0  0  0  0  0  0  0  0  0  0
    4.4916   -0.7002   -0.7186 H   0  0  0  0  0  0  0  0  0  0  0  0
    3.6158   -3.3623   -0.0909 C   0  0  2  0  0  0  0  0  0  0  0  0
    2.6386   -4.2505    0.5578 N   0  3  2  0  0  0  0  0  0  0  0  0
    1.4187   -4.3447   -0.2549 C   0  0  0  0  0  0  0  0  0  0  0  0
    0.6346   -3.0279   -0.1574 C   0  0  0  0  0  0  0  0  0  0  0  0
    2.2999   -3.7155    1.8834 C   0  0  0  0  0  0  0  0  0  0  0  0
    1.3761   -4.6732    2.5906 C   0  0  0  0  0  0  0  0  0  0  0  0
    1.7587   -5.6858    3.3929 C   0  0  0  0  0  0  0  0  0  0  0  0
    0.5846   -6.3234    3.8413 C   0  0  0  0  0  0  0  0  0  0  0  0
   -0.4606   -5.6578    3.2820 C   0  0  0  0  0  0  0  0  0  0  0  0
    0.0345   -4.6556    2.5305 O   0  0  0  0  0  0  0  0  0  0  0  0
   -1.8917   -5.9747    3.4708 C   0  0  0  0  0  0  0  0  0  0  0  0
   -2.2718   -7.0392    4.2903 C   0  0  0  0  0  0  0  0  0  0  0  0
   -3.6092   -7.3294    4.4626 C   0  0  0  0  0  0  0  0  0  0  0  0
   -4.5733   -6.5681    3.8255 C   0  0  0  0  0  0  0  0  0  0  0  0
   -4.2034   -5.5122    3.0118 C   0  0  0  0  0  0  0  0  0  0  0  0
   -2.8693   -5.2076    2.8354 C   0  0  0  0  0  0  0  0  0  0  0  0
   -5.2602   -4.6892    2.3212 C   0  0  0  0  0  0  0  0  0  0  0  0
   -6.5265   -5.1815    2.6547 F   0  0  0  0  0  0  0  0  0  0  0  0
   -5.1552   -3.3559    2.7318 F   0  0  0  0  0  0  0  0  0  0  0  0
   -5.0799   -4.7661    0.9360 F   0  0  0  0  0  0  0  0  0  0  0  0
    4.7822   -3.1310    0.8349 C   0  0  0  0  0  0  0  0  0  0  0  0
    5.9670   -3.8152    0.6359 C   0  0  0  0  0  0  0  0  0  0  0  0
    7.0399   -3.6060    1.4821 C   0  0  0  0  0  0  0  0  0  0  0  0
    6.9298   -2.7097    2.5328 C   0  0  0  0  0  0  0  0  0  0  0  0
    5.7363   -2.0205    2.7332 C   0  0  0  0  0  0  0  0  0  0  0  0
    4.6671   -2.2309    1.8777 C   0  0  0  0  0  0  0  0  0  0  0  0
    5.8795   -1.2070    3.8200 O   0  0  0  0  0  0  0  0  0  0  0  0
    7.0310   -1.7069    4.5253 C   0  0  0  0  0  0  0  0  0  0  0  0
    7.8208   -2.3280    3.4939 O   0  0  0  0  0  0  0  0  0  0  0  0
   -0.6751    2.1477   -1.3315 H   0  0  0  0  0  0  0  0  0  0  0  0
    1.5126    3.2364   -1.6040 H   0  0  0  0  0  0  0  0  0  0  0  0
    3.5858    1.9547   -1.3235 H   0  0  0  0  0  0  0  0  0  0  0  0
   -0.8170   -0.2286   -0.7864 H   0  0  0  0  0  0  0  0  0  0  0  0
    3.9651   -3.8173   -1.0178 H   0  0  0  0  0  0  0  0  0  0  0  0
    1.6883   -4.5308   -1.2945 H   0  0  0  0  0  0  0  0  0  0  0  0
    0.8002   -5.1638    0.1120 H   0  0  0  0  0  0  0  0  0  0  0  0
    0.2082   -2.9248    0.8404 H   0  0  0  0  0  0  0  0  0  0  0  0
   -0.1605   -3.0153   -0.9029 H   0  0  0  0  0  0  0  0  0  0  0  0
    3.2111   -3.5906    2.4685 H   0  0  0  0  0  0  0  0  0  0  0  0
    1.8057   -2.7506    1.7703 H   0  0  0  0  0  0  0  0  0  0  0  0
    2.7732   -5.9578    3.6443 H   0  0  0  0  0  0  0  0  0  0  0  0
    0.5263   -7.1764    4.5011 H   0  0  0  0  0  0  0  0  0  0  0  0
   -1.5204   -7.6344    4.7878 H   0  0  0  0  0  0  0  0  0  0  0  0
   -3.9046   -8.1528    5.0959 H   0  0  0  0  0  0  0  0  0  0  0  0
   -5.6191   -6.7995    3.9638 H   0  0  0  0  0  0  0  0  0  0  0  0
   -2.5820   -4.3800    2.2037 H   0  0  0  0  0  0  0  0  0  0  0  0
    6.0543   -4.5149   -0.1822 H   0  0  0  0  0  0  0  0  0  0  0  0
    7.9642   -4.1419    1.3243 H   0  0  0  0  0  0  0  0  0  0  0  0
    3.7418   -1.6945    2.0281 H   0  0  0  0  0  0  0  0  0  0  0  0
    7.5816   -0.8882    4.9886 H   0  0  0  0  0  0  0  0  0  0  0  0
    6.7328   -2.4411    5.2737 H   0  0  0  0  0  0  0  0  0  0  0  0
    3.0413   -5.1696    0.6639 H   0  0  0  0  0  0  0  0  0  0  0  0
  1  6  2  0  0  0  0
  1  2  1  0  0  0  0
  1 40  1  0  0  0  0
  2  3  2  0  0  0  0
  2 41  1  0  0  0  0
  3  4  1  0  0  0  0
  3 42  1  0  0  0  0
  4  9  1  0  0  0  0
  4  5  2  0  0  0  0
  5  6  1  0  0  0  0
  5  7  1  0  0  0  0
  6 43  1  0  0  0  0
  7 14  1  0  0  0  0
  7  8  2  0  0  0  0
  8  9  1  0  0  0  0
  8 11  1  0  0  0  0
  9 10  1  0  0  0  0
 11 12  1  0  0  0  0
 11 31  1  0  0  0  0
 11 44  1  0  0  0  0
 12 13  1  0  0  0  0
 12 15  1  0  0  0  0
 12 62  1  0  0  0  0
 13 14  1  0  0  0  0
 13 45  1  0  0  0  0
 13 46  1  0  0  0  0
 14 47  1  0  0  0  0
 14 48  1  0  0  0  0
 15 16  1  0  0  0  0
 15 49  1  0  0  0  0
 15 50  1  0  0  0  0
 16 20  1  0  0  0  0
 16 17  2  0  0  0  0
 17 18  1  0  0  0  0
 17 51  1  0  0  0  0
 18 19  2  0  0  0  0
 18 52  1  0  0  0  0
 19 20  1  0  0  0  0
 19 21  1  0  0  0  0
 21 26  2  0  0  0  0
 21 22  1  0  0  0  0
 22 23  2  0  0  0  0
 22 53  1  0  0  0  0
 23 24  1  0  0  0  0
 23 54  1  0  0  0  0
 24 25  2  0  0  0  0
 24 55  1  0  0  0  0
 25 26  1  0  0  0  0
 25 27  1  0  0  0  0
 26 56  1  0  0  0  0
 27 28  1  0  0  0  0
 27 29  1  0  0  0  0
 27 30  1  0  0  0  0
 31 36  2  0  0  0  0
 31 32  1  0  0  0  0
 32 33  2  0  0  0  0
 32 57  1  0  0  0  0
 33 34  1  0  0  0  0
 33 58  1  0  0  0  0
 34 39  1  0  0  0  0
 34 35  2  0  0  0  0
 35 36  1  0  0  0  0
 35 37  1  0  0  0  0
 36 59  1  0  0  0  0
 37 38  1  0  0  0  0
 38 39  1  0  0  0  0
 38 60  1  0  0  0  0
 38 61  1  0  0  0  0
M  CHG  1  12   1
M  END
$$$$
CHEMBL350400
  -OEChem-07121202283D

 61 67  0     1  0  0  0  0  0999 V2000
   -0.0164    1.3616    0.0095 C   0  0  0  0  0  0  0  0  0  0  0  0
    1.1695    2.0833    0.0021 C   0  0  0  0  0  0  0  0  0  0  0  0
    2.3848    1.4354   -0.0134 C   0  0  0  0  0  0  0  0  0  0  0  0
    2.4283    0.0454   -0.0210 C   0  0  0  0  0  0  0  0  0  0  0  0
    1.2225   -0.6835   -0.0130 C   0  0  0  0  0  0  0  0  0  0  0  0
    0.0021   -0.0041    0.0020 C   0  0  0  0  0  0  0  0  0  0  0  0
    1.6088   -2.0882   -0.0232 C   0  0  0  0  0  0  0  0  0  0  0  0
    2.9566   -2.1372   -0.0371 C   0  0  0  0  0  0  0  0  0  0  0  0
    3.4598   -0.8692   -0.0353 N   0  0  0  0  0  0  0  0  0  0  0  0
    4.4034   -0.6444   -0.0437 H   0  0  0  0  0  0  0  0  0  0  0  0
    3.7316   -3.4345   -0.0540 C   0  0  1  0  0  0  0  0  0  0  0  0
    2.8174   -4.5167   -0.4537 N   0  0  2  0  0  0  0  0  0  0  0  0
    1.5949   -4.5176    0.3620 C   0  0  0  0  0  0  0  0  0  0  0  0
    0.7262   -3.3100   -0.0177 C   0  0  0  0  0  0  0  0  0  0  0  0
    3.4895   -5.8216   -0.3965 C   0  0  0  0  0  0  0  0  0  0  0  0
    2.6140   -6.8662   -1.0395 C   0  0  0  0  0  0  0  0  0  0  0  0
    2.6328   -7.2141   -2.3410 C   0  0  0  0  0  0  0  0  0  0  0  0
    1.6615   -8.2206   -2.5134 C   0  0  0  0  0  0  0  0  0  0  0  0
    1.0978   -8.4335   -1.2947 C   0  0  0  0  0  0  0  0  0  0  0  0
    1.6895   -7.6090   -0.4092 O   0  0  0  0  0  0  0  0  0  0  0  0
    0.0262   -9.4055   -0.9928 C   0  0  0  0  0  0  0  0  0  0  0  0
   -0.4943  -10.2125   -2.0061 C   0  0  0  0  0  0  0  0  0  0  0  0
   -1.4940  -11.1179   -1.7174 C   0  0  0  0  0  0  0  0  0  0  0  0
   -1.9811  -11.2274   -0.4268 C   0  0  0  0  0  0  0  0  0  0  0  0
   -1.4701  -10.4304    0.5819 C   0  0  0  0  0  0  0  0  0  0  0  0
   -0.4659   -9.5247    0.3079 C   0  0  0  0  0  0  0  0  0  0  0  0
   -2.0074  -10.5558    1.9842 C   0  0  0  0  0  0  0  0  0  0  0  0
   -3.0065  -11.5346    2.0151 F   0  0  0  0  0  0  0  0  0  0  0  0
   -0.9706  -10.9203    2.8500 F   0  0  0  0  0  0  0  0  0  0  0  0
   -2.5438   -9.3289    2.3896 F   0  0  0  0  0  0  0  0  0  0  0  0
    4.8644   -3.3360   -1.0430 C   0  0  0  0  0  0  0  0  0  0  0  0
    4.6177   -3.5019   -2.3932 C   0  0  0  0  0  0  0  0  0  0  0  0
    5.6534   -3.4119   -3.3043 C   0  0  0  0  0  0  0  0  0  0  0  0
    6.9424   -3.1556   -2.8658 C   0  0  0  0  0  0  0  0  0  0  0  0
    7.1910   -2.9885   -1.5057 C   0  0  0  0  0  0  0  0  0  0  0  0
    6.1471   -3.0743   -0.5988 C   0  0  0  0  0  0  0  0  0  0  0  0
    8.5236   -2.7493   -1.3319 O   0  0  0  0  0  0  0  0  0  0  0  0
    9.1534   -3.1762   -2.5543 C   0  0  0  0  0  0  0  0  0  0  0  0
    8.1192   -3.0210   -3.5441 O   0  0  0  0  0  0  0  0  0  0  0  0
   -0.9614    1.8843    0.0259 H   0  0  0  0  0  0  0  0  0  0  0  0
    1.1388    3.1629    0.0081 H   0  0  0  0  0  0  0  0  0  0  0  0
    3.3020    2.0056   -0.0200 H   0  0  0  0  0  0  0  0  0  0  0  0
   -0.9252   -0.5577    0.0073 H   0  0  0  0  0  0  0  0  0  0  0  0
    4.1286   -3.6379    0.9405 H   0  0  0  0  0  0  0  0  0  0  0  0
    1.0382   -5.4371    0.1813 H   0  0  0  0  0  0  0  0  0  0  0  0
    1.8620   -4.4557    1.4170 H   0  0  0  0  0  0  0  0  0  0  0  0
   -0.0720   -3.1851    0.7141 H   0  0  0  0  0  0  0  0  0  0  0  0
    0.2985   -3.4606   -1.0089 H   0  0  0  0  0  0  0  0  0  0  0  0
    4.4387   -5.7651   -0.9292 H   0  0  0  0  0  0  0  0  0  0  0  0
    3.6721   -6.0909    0.6438 H   0  0  0  0  0  0  0  0  0  0  0  0
    3.2710   -6.7996   -3.1074 H   0  0  0  0  0  0  0  0  0  0  0  0
    1.4127   -8.7248   -3.4354 H   0  0  0  0  0  0  0  0  0  0  0  0
   -0.1153  -10.1278   -3.0139 H   0  0  0  0  0  0  0  0  0  0  0  0
   -1.8978  -11.7426   -2.5005 H   0  0  0  0  0  0  0  0  0  0  0  0
   -2.7640  -11.9379   -0.2061 H   0  0  0  0  0  0  0  0  0  0  0  0
   -0.0645   -8.9064    1.0972 H   0  0  0  0  0  0  0  0  0  0  0  0
    3.6137   -3.7025   -2.7368 H   0  0  0  0  0  0  0  0  0  0  0  0
    5.4578   -3.5419   -4.3585 H   0  0  0  0  0  0  0  0  0  0  0  0
    6.3361   -2.9407    0.4561 H   0  0  0  0  0  0  0  0  0  0  0  0
   10.0063   -2.5392   -2.7884 H   0  0  0  0  0  0  0  0  0  0  0  0
    9.4614   -4.2193   -2.4825 H   0  0  0  0  0  0  0  0  0  0  0  0
  1  6  2  0  0  0  0
  1  2  1  0  0  0  0
  1 40  1  0  0  0  0
  2  3  2  0  0  0  0
  2 41  1  0  0  0  0
  3  4  1  0  0  0  0
  3 42  1  0  0  0  0
  4  9  1  0  0  0  0
  4  5  2  0  0  0  0
  5  6  1  0  0  0  0
  5  7  1  0  0  0  0
  6 43  1  0  0  0  0
  7 14  1  0  0  0  0
  7  8  2  0  0  0  0
  8  9  1  0  0  0  0
  8 11  1  0  0  0  0
  9 10  1  0  0  0  0
 11 12  1  0  0  0  0
 11 31  1  0  0  0  0
 11 44  1  0  0  0  0
 12 13  1  0  0  0  0
 12 15  1  0  0  0  0
 13 14  1  0  0  0  0
 13 45  1  0  0  0  0
 13 46  1  0  0  0  0
 14 47  1  0  0  0  0
 14 48  1  0  0  0  0
 15 16  1  0  0  0  0
 15 49  1  0  0  0  0
 15 50  1  0  0  0  0
 16 20  1  0  0  0  0
 16 17  2  0  0  0  0
 17 18  1  0  0  0  0
 17 51  1  0  0  0  0
 18 19  2  0  0  0  0
 18 52  1  0  0  0  0
 19 20  1  0  0  0  0
 19 21  1  0  0  0  0
 21 26  2  0  0  0  0
 21 22  1  0  0  0  0
 22 23  2  0  0  0  0
 22 53  1  0  0  0  0
 23 24  1  0  0  0  0
 23 54  1  0  0  0  0
 24 25  2  0  0  0  0
 24 55  1  0  0  0  0
 25 26  1  0  0  0  0
 25 27  1  0  0  0  0
 26 56  1  0  0  0  0
 27 28  1  0  0  0  0
 27 29  1  0  0  0  0
 27 30  1  0  0  0  0
 31 36  2  0  0  0  0
 31 32  1  0  0  0  0
 32 33  2  0  0  0  0
 32 57  1  0  0  0  0
 33 34  1  0  0  0  0
 33 58  1  0  0  0  0
 34 39  1  0  0  0  0
 34 35  2  0  0  0  0
 35 36  1  0  0  0  0
 35 37  1  0  0  0  0
 36 59  1  0  0  0  0
 37 38  1  0  0  0  0
 38 39  1  0  0  0  0
 38 60  1  0  0  0  0
 38 61  1  0  0  0  0
M  END
$$$$
CHEMBL350400
  -OEChem-07121202283D

 62 68  0     1  0  0  0  0  0999 V2000
   -0.0164    1.3615    0.0095 C   0  0  0  0  0  0  0  0  0  0  0  0
    1.1695    2.0833    0.0021 C   0  0  0  0  0  0  0  0  0  0  0  0
    2.3848    1.4354   -0.0134 C   0  0  0  0  0  0  0  0  0  0  0  0
    2.4284    0.0453   -0.0210 C   0  0  0  0  0  0  0  0  0  0  0  0
    1.2225   -0.6837   -0.0129 C   0  0  0  0  0  0  0  0  0  0  0  0
    0.0021   -0.0041    0.0020 C   0  0  0  0  0  0  0  0  0  0  0  0
    1.6092   -2.0877   -0.0230 C   0  0  0  0  0  0  0  0  0  0  0  0
    2.9574   -2.1370   -0.0376 C   0  0  0  0  0  0  0  0  0  0  0  0
    3.4602   -0.8691   -0.0355 N   0  0  0  0  0  0  0  0  0  0  0  0
    4.4037   -0.6441   -0.0431 H   0  0  0  0  0  0  0  0  0  0  0  0
    3.7294   -3.4357   -0.0570 C   0  0  1  0  0  0  0  0  0  0  0  0
    2.8214   -4.5135   -0.4790 N   0  3  2  0  0  0  0  0  0  0  0  0
    1.6120   -4.5156    0.3548 C   0  0  0  0  0  0  0  0  0  0  0  0
    0.7316   -3.3132   -0.0158 C   0  0  0  0  0  0  0  0  0  0  0  0
    3.5061   -5.8064   -0.3461 C   0  0  0  0  0  0  0  0  0  0  0  0
    2.6247   -6.9001   -0.8920 C   0  0  0  0  0  0  0  0  0  0  0  0
    2.6154   -7.3392   -2.1658 C   0  0  0  0  0  0  0  0  0  0  0  0
    1.6492   -8.3623   -2.2427 C   0  0  0  0  0  0  0  0  0  0  0  0
    1.1166   -8.4923   -0.9986 C   0  0  0  0  0  0  0  0  0  0  0  0
    1.7221   -7.6029   -0.1883 O   0  0  0  0  0  0  0  0  0  0  0  0
    0.0612   -9.4479   -0.6025 C   0  0  0  0  0  0  0  0  0  0  0  0
   -0.4763  -10.3285   -1.5432 C   0  0  0  0  0  0  0  0  0  0  0  0
   -1.4608  -11.2182   -1.1669 C   0  0  0  0  0  0  0  0  0  0  0  0
   -1.9159  -11.2393    0.1398 C   0  0  0  0  0  0  0  0  0  0  0  0
   -1.3880  -10.3692    1.0768 C   0  0  0  0  0  0  0  0  0  0  0  0
   -0.3986   -9.4781    0.7149 C   0  0  0  0  0  0  0  0  0  0  0  0
   -1.8904  -10.3986    2.4973 C   0  0  0  0  0  0  0  0  0  0  0  0
   -2.8799  -11.3798    2.6217 F   0  0  0  0  0  0  0  0  0  0  0  0
   -0.8301  -10.6935    3.3610 F   0  0  0  0  0  0  0  0  0  0  0  0
   -2.4277   -9.1500    2.8278 F   0  0  0  0  0  0  0  0  0  0  0  0
    4.8751   -3.3290   -1.0301 C   0  0  0  0  0  0  0  0  0  0  0  0
    4.6457   -3.4805   -2.3850 C   0  0  0  0  0  0  0  0  0  0  0  0
    5.6933   -3.3831   -3.2816 C   0  0  0  0  0  0  0  0  0  0  0  0
    6.9769   -3.1335   -2.8238 C   0  0  0  0  0  0  0  0  0  0  0  0
    7.2080   -2.9809   -1.4589 C   0  0  0  0  0  0  0  0  0  0  0  0
    6.1523   -3.0741   -0.5666 C   0  0  0  0  0  0  0  0  0  0  0  0
    8.5386   -2.7458   -1.2654 O   0  0  0  0  0  0  0  0  0  0  0  0
    9.1836   -3.1612   -2.4839 C   0  0  0  0  0  0  0  0  0  0  0  0
    8.1626   -2.9940   -3.4854 O   0  0  0  0  0  0  0  0  0  0  0  0
   -0.9614    1.8842    0.0259 H   0  0  0  0  0  0  0  0  0  0  0  0
    1.1388    3.1629    0.0081 H   0  0  0  0  0  0  0  0  0  0  0  0
    3.3020    2.0056   -0.0200 H   0  0  0  0  0  0  0  0  0  0  0  0
   -0.9253   -0.5576    0.0080 H   0  0  0  0  0  0  0  0  0  0  0  0
    4.1119   -3.6491    0.9412 H   0  0  0  0  0  0  0  0  0  0  0  0
    1.0565   -5.4382    0.1866 H   0  0  0  0  0  0  0  0  0  0  0  0
    1.8950   -4.4485    1.4053 H   0  0  0  0  0  0  0  0  0  0  0  0
   -0.0621   -3.1950    0.7220 H   0  0  0  0  0  0  0  0  0  0  0  0
    0.2985   -3.4634   -1.0047 H   0  0  0  0  0  0  0  0  0  0  0  0
    4.4418   -5.7811   -0.9046 H   0  0  0  0  0  0  0  0  0  0  0  0
    3.7159   -6.0000    0.7058 H   0  0  0  0  0  0  0  0  0  0  0  0
    3.2314   -6.9756   -2.9749 H   0  0  0  0  0  0  0  0  0  0  0  0
    1.3828   -8.9324   -3.1204 H   0  0  0  0  0  0  0  0  0  0  0  0
   -0.1223  -10.3128   -2.5634 H   0  0  0  0  0  0  0  0  0  0  0  0
   -1.8777  -11.8996   -1.8937 H   0  0  0  0  0  0  0  0  0  0  0  0
   -2.6870  -11.9379    0.4293 H   0  0  0  0  0  0  0  0  0  0  0  0
    0.0161   -8.8026    1.4485 H   0  0  0  0  0  0  0  0  0  0  0  0
    3.6459   -3.6759   -2.7437 H   0  0  0  0  0  0  0  0  0  0  0  0
    5.5112   -3.5018   -4.3395 H   0  0  0  0  0  0  0  0  0  0  0  0
    6.3279   -2.9518    0.4920 H   0  0  0  0  0  0  0  0  0  0  0  0
   10.0405   -2.5233   -2.7004 H   0  0  0  0  0  0  0  0  0  0  0  0
    9.4889   -4.2055   -2.4189 H   0  0  0  0  0  0  0  0  0  0  0  0
    2.5617   -4.3731   -1.4439 H   0  0  0  0  0  0  0  0  0  0  0  0
  1  6  2  0  0  0  0
  1  2  1  0  0  0  0
  1 40  1  0  0  0  0
  2  3  2  0  0  0  0
  2 41  1  0  0  0  0
  3  4  1  0  0  0  0
  3 42  1  0  0  0  0
  4  9  1  0  0  0  0
  4  5  2  0  0  0  0
  5  6  1  0  0  0  0
  5  7  1  0  0  0  0
  6 43  1  0  0  0  0
  7 14  1  0  0  0  0
  7  8  2  0  0  0  0
  8  9  1  0  0  0  0
  8 11  1  0  0  0  0
  9 10  1  0  0  0  0
 11 12  1  0  0  0  0
 11 31  1  0  0  0  0
 11 44  1  0  0  0  0
 12 13  1  0  0  0  0
 12 15  1  0  0  0  0
 12 62  1  0  0  0  0
 13 14  1  0  0  0  0
 13 45  1  0  0  0  0
 13 46  1  0  0  0  0
 14 47  1  0  0  0  0
 14 48  1  0  0  0  0
 15 16  1  0  0  0  0
 15 49  1  0  0  0  0
 15 50  1  0  0  0  0
 16 20  1  0  0  0  0
 16 17  2  0  0  0  0
 17 18  1  0  0  0  0
 17 51  1  0  0  0  0
 18 19  2  0  0  0  0
 18 52  1  0  0  0  0
 19 20  1  0  0  0  0
 19 21  1  0  0  0  0
 21 26  2  0  0  0  0
 21 22  1  0  0  0  0
 22 23  2  0  0  0  0
 22 53  1  0  0  0  0
 23 24  1  0  0  0  0
 23 54  1  0  0  0  0
 24 25  2  0  0  0  0
 24 55  1  0  0  0  0
 25 26  1  0  0  0  0
 25 27  1  0  0  0  0
 26 56  1  0  0  0  0
 27 28  1  0  0  0  0
 27 29  1  0  0  0  0
 27 30  1  0  0  0  0
 31 36  2  0  0  0  0
 31 32  1  0  0  0  0
 32 33  2  0  0  0  0
 32 57  1  0  0  0  0
 33 34  1  0  0  0  0
 33 58  1  0  0  0  0
 34 39  1  0  0  0  0
 34 35  2  0  0  0  0
 35 36  1  0  0  0  0
 35 37  1  0  0  0  0
 36 59  1  0  0  0  0
 37 38  1  0  0  0  0
 38 39  1  0  0  0  0
 38 60  1  0  0  0  0
 38 61  1  0  0  0  0
M  CHG  1  12   1
M  END
$$$$
CHEMBL42796
  -OEChem-07121202283D

 50 53  0     0  0  0  0  0  0999 V2000
    1.0503    1.2936    0.4036 C   0  0  0  0  0  0  0  0  0  0  0  0
    0.7958   -0.2123    0.3107 C   0  0  0  0  0  0  0  0  0  0  0  0
    1.3969   -0.7519   -0.9887 C   0  0  0  0  0  0  0  0  0  0  0  0
    1.1809   -2.1624   -1.0638 O   0  0  0  0  0  0  0  0  0  0  0  0
    1.6880   -2.8067   -2.1452 C   0  0  0  0  0  0  0  0  0  0  0  0
    2.3488   -2.0939   -3.1338 C   0  0  0  0  0  0  0  0  0  0  0  0
    2.8640   -2.7507   -4.2341 C   0  0  0  0  0  0  0  0  0  0  0  0
    2.7255   -4.1232   -4.3591 C   0  0  0  0  0  0  0  0  0  0  0  0
    2.0715   -4.8474   -3.3857 C   0  0  0  0  0  0  0  0  0  0  0  0
    1.5511   -4.1963   -2.2647 C   0  0  0  0  0  0  0  0  0  0  0  0
    0.8553   -4.9661   -1.2160 C   0  0  0  0  0  0  0  0  0  0  0  0
    0.2809   -4.3134   -0.2336 N   0  0  0  0  0  0  0  0  0  0  0  0
   -0.3675   -4.9474    0.7511 C   0  0  0  0  0  0  0  0  0  0  0  0
   -0.4379   -6.3509    0.7371 C   0  0  0  0  0  0  0  0  0  0  0  0
   -1.1674   -6.7433    1.8750 C   0  0  0  0  0  0  0  0  0  0  0  0
   -1.5146   -5.6704    2.5307 N   0  0  0  0  0  0  0  0  0  0  0  0
   -1.0351   -4.5370    1.8623 N   0  0  0  0  0  0  0  0  0  0  0  0
   -1.2207   -3.1474    2.2876 C   0  0  0  0  0  0  0  0  0  0  0  0
   -2.5540   -2.6455    1.7963 C   0  0  0  0  0  0  0  0  0  0  0  0
   -2.6578   -2.0732    0.5423 C   0  0  0  0  0  0  0  0  0  0  0  0
   -3.8808   -1.6128    0.0916 C   0  0  0  0  0  0  0  0  0  0  0  0
   -5.0002   -1.7251    0.8948 C   0  0  0  0  0  0  0  0  0  0  0  0
   -4.8967   -2.2982    2.1485 C   0  0  0  0  0  0  0  0  0  0  0  0
   -3.6745   -2.7625    2.5975 C   0  0  0  0  0  0  0  0  0  0  0  0
   -1.4925   -8.1612    2.2684 C   0  0  0  0  0  0  0  0  0  0  0  0
    0.2068   -7.0666   -0.3634 C   0  0  0  0  0  0  0  0  0  0  0  0
    0.8312   -6.3295   -1.3114 N   0  0  0  0  0  0  0  0  0  0  0  0
    0.1784   -8.2829   -0.4273 O   0  0  0  0  0  0  0  0  0  0  0  0
    2.1238    1.4819    0.3942 H   0  0  0  0  0  0  0  0  0  0  0  0
    0.5862    1.7936   -0.4465 H   0  0  0  0  0  0  0  0  0  0  0  0
    0.6220    1.6780    1.3293 H   0  0  0  0  0  0  0  0  0  0  0  0
    1.2599   -0.7123    1.1608 H   0  0  0  0  0  0  0  0  0  0  0  0
   -0.2777   -0.4006    0.3201 H   0  0  0  0  0  0  0  0  0  0  0  0
    0.9195   -0.2654   -1.8394 H   0  0  0  0  0  0  0  0  0  0  0  0
    2.4673   -0.5467   -1.0066 H   0  0  0  0  0  0  0  0  0  0  0  0
    2.4605   -1.0235   -3.0436 H   0  0  0  0  0  0  0  0  0  0  0  0
    3.3776   -2.1909   -5.0017 H   0  0  0  0  0  0  0  0  0  0  0  0
    3.1313   -4.6281   -5.2233 H   0  0  0  0  0  0  0  0  0  0  0  0
    1.9651   -5.9174   -3.4875 H   0  0  0  0  0  0  0  0  0  0  0  0
   -1.1907   -3.0934    3.3758 H   0  0  0  0  0  0  0  0  0  0  0  0
   -0.4244   -2.5306    1.8711 H   0  0  0  0  0  0  0  0  0  0  0  0
   -1.7832   -1.9855   -0.0853 H   0  0  0  0  0  0  0  0  0  0  0  0
   -3.9617   -1.1651   -0.8879 H   0  0  0  0  0  0  0  0  0  0  0  0
   -5.9556   -1.3648    0.5430 H   0  0  0  0  0  0  0  0  0  0  0  0
   -5.7712   -2.3856    2.7762 H   0  0  0  0  0  0  0  0  0  0  0  0
   -3.5943   -3.2136    3.5754 H   0  0  0  0  0  0  0  0  0  0  0  0
   -0.6991   -8.5526    2.9052 H   0  0  0  0  0  0  0  0  0  0  0  0
   -2.4371   -8.1800    2.8120 H   0  0  0  0  0  0  0  0  0  0  0  0
   -1.5764   -8.7767    1.3727 H   0  0  0  0  0  0  0  0  0  0  0  0
    1.2661   -6.7700   -2.0582 H   0  0  0  0  0  0  0  0  0  0  0  0
  1  2  1  0  0  0  0
  1 29  1  0  0  0  0
  1 30  1  0  0  0  0
  1 31  1  0  0  0  0
  2  3  1  0  0  0  0
  2 32  1  0  0  0  0
  2 33  1  0  0  0  0
  3  4  1  0  0  0  0
  3 34  1  0  0  0  0
  3 35  1  0  0  0  0
  4  5  1  0  0  0  0
  5 10  2  0  0  0  0
  5  6  1  0  0  0  0
  6  7  2  0  0  0  0
  6 36  1  0  0  0  0
  7  8  1  0  0  0  0
  7 37  1  0  0  0  0
  8  9  2  0  0  0  0
  8 38  1  0  0  0  0
  9 10  1  0  0  0  0
  9 39  1  0  0  0  0
 10 11  1  0  0  0  0
 11 27  1  0  0  0  0
 11 12  2  0  0  0  0
 12 13  1  0  0  0  0
 13 17  1  0  0  0  0
 13 14  2  0  0  0  0
 14 15  1  0  0  0  0
 14 26  1  0  0  0  0
 15 16  2  0  0  0  0
 15 25  1  0  0  0  0
 16 17  1  0  0  0  0
 17 18  1  0  0  0  0
 18 19  1  0  0  0  0
 18 40  1  0  0  0  0
 18 41  1  0  0  0  0
 19 24  2  0  0  0  0
 19 20  1  0  0  0  0
 20 21  2  0  0  0  0
 20 42  1  0  0  0  0
 21 22  1  0  0  0  0
 21 43  1  0  0  0  0
 22 23  2  0  0  0  0
 22 44  1  0  0  0  0
 23 24  1  0  0  0  0
 23 45  1  0  0  0  0
 24 46  1  0  0  0  0
 25 47  1  0  0  0  0
 25 48  1  0  0  0  0
 25 49  1  0  0  0  0
 26 27  1  0  0  0  0
 26 28  2  0  0  0  0
 27 50  1  0  0  0  0
M  END
$$$$
CHEMBL42796
  -OEChem-07121202283D

 49 52  0     0  0  0  0  0  0999 V2000
   -0.0187    1.5258    0.0104 C   0  0  0  0  0  0  0  0  0  0  0  0
    0.0021   -0.0041    0.0020 C   0  0  0  0  0  0  0  0  0  0  0  0
    0.7421   -0.5109    1.2415 C   0  0  0  0  0  0  0  0  0  0  0  0
    0.7614   -1.9398    1.2337 O   0  0  0  0  0  0  0  0  0  0  0  0
    1.3846   -2.5535    2.2722 C   0  0  0  0  0  0  0  0  0  0  0  0
    1.9611   -1.7987    3.2821 C   0  0  0  0  0  0  0  0  0  0  0  0
    2.5944   -2.4244    4.3383 C   0  0  0  0  0  0  0  0  0  0  0  0
    2.6582   -3.8062    4.3958 C   0  0  0  0  0  0  0  0  0  0  0  0
    2.0896   -4.5703    3.3982 C   0  0  0  0  0  0  0  0  0  0  0  0
    1.4424   -3.9501    2.3303 C   0  0  0  0  0  0  0  0  0  0  0  0
    0.8247   -4.7657    1.2593 C   0  0  0  0  0  0  0  0  0  0  0  0
    0.8904   -6.0850    1.3439 N   0  0  0  0  0  0  0  0  0  0  0  0
    0.3475   -6.8511    0.4024 C   0  0  0  0  0  0  0  0  0  0  0  0
   -0.3000   -6.2352   -0.6886 C   0  0  0  0  0  0  0  0  0  0  0  0
   -0.7764   -7.2695   -1.5231 C   0  0  0  0  0  0  0  0  0  0  0  0
   -0.4502   -8.4129   -0.9913 N   0  0  0  0  0  0  0  0  0  0  0  0
    0.2478   -8.1967    0.2035 N   0  0  0  0  0  0  0  0  0  0  0  0
    0.7796   -9.2370    1.0874 C   0  0  0  0  0  0  0  0  0  0  0  0
   -0.2633   -9.6091    2.1096 C   0  0  0  0  0  0  0  0  0  0  0  0
   -0.3228   -8.9331    3.3139 C   0  0  0  0  0  0  0  0  0  0  0  0
   -1.2795   -9.2745    4.2516 C   0  0  0  0  0  0  0  0  0  0  0  0
   -2.1769  -10.2916    3.9847 C   0  0  0  0  0  0  0  0  0  0  0  0
   -2.1179  -10.9669    2.7800 C   0  0  0  0  0  0  0  0  0  0  0  0
   -1.1640  -10.6227    1.8406 C   0  0  0  0  0  0  0  0  0  0  0  0
   -1.5345   -7.0823   -2.8120 C   0  0  0  0  0  0  0  0  0  0  0  0
   -0.3447   -4.8295   -0.7346 C   0  0  0  0  0  0  0  0  0  0  0  0
    0.2191   -4.1458    0.2499 N   0  0  0  0  0  0  0  0  0  0  0  0
   -0.9542   -4.1899   -1.7604 O   0  5  0  0  0  0  0  0  0  0  0  0
    1.0039    1.9031    0.0027 H   0  0  0  0  0  0  0  0  0  0  0  0
   -0.5459    1.8868   -0.8726 H   0  0  0  0  0  0  0  0  0  0  0  0
   -0.5289    1.8773    0.9072 H   0  0  0  0  0  0  0  0  0  0  0  0
   -1.0205   -0.3814    0.0098 H   0  0  0  0  0  0  0  0  0  0  0  0
    0.5123   -0.3556   -0.8948 H   0  0  0  0  0  0  0  0  0  0  0  0
    1.7647   -0.1336    1.2338 H   0  0  0  0  0  0  0  0  0  0  0  0
    0.2319   -0.1594    2.1383 H   0  0  0  0  0  0  0  0  0  0  0  0
    1.9154   -0.7204    3.2428 H   0  0  0  0  0  0  0  0  0  0  0  0
    3.0423   -1.8327    5.1230 H   0  0  0  0  0  0  0  0  0  0  0  0
    3.1555   -4.2876    5.2248 H   0  0  0  0  0  0  0  0  0  0  0  0
    2.1418   -5.6480    3.4464 H   0  0  0  0  0  0  0  0  0  0  0  0
    1.0407  -10.1160    0.4981 H   0  0  0  0  0  0  0  0  0  0  0  0
    1.6687   -8.8627    1.5951 H   0  0  0  0  0  0  0  0  0  0  0  0
    0.3783   -8.1386    3.5224 H   0  0  0  0  0  0  0  0  0  0  0  0
   -1.3256   -8.7469    5.1928 H   0  0  0  0  0  0  0  0  0  0  0  0
   -2.9238  -10.5587    4.7175 H   0  0  0  0  0  0  0  0  0  0  0  0
   -2.8188  -11.7617    2.5716 H   0  0  0  0  0  0  0  0  0  0  0  0
   -1.1203  -11.1478    0.8979 H   0  0  0  0  0  0  0  0  0  0  0  0
   -0.8309   -7.0261   -3.6426 H   0  0  0  0  0  0  0  0  0  0  0  0
   -2.2082   -7.9258   -2.9631 H   0  0  0  0  0  0  0  0  0  0  0  0
   -2.1129   -6.1597   -2.7626 H   0  0  0  0  0  0  0  0  0  0  0  0
  1  2  1  0  0  0  0
  1 29  1  0  0  0  0
  1 30  1  0  0  0  0
  1 31  1  0  0  0  0
  2  3  1  0  0  0  0
  2 32  1  0  0  0  0
  2 33  1  0  0  0  0
  3  4  1  0  0  0  0
  3 34  1  0  0  0  0
  3 35  1  0  0  0  0
  4  5  1  0  0  0  0
  5 10  2  0  0  0  0
  5  6  1  0  0  0  0
  6  7  2  0  0  0  0
  6 36  1  0  0  0  0
  7  8  1  0  0  0  0
  7 37  1  0  0  0  0
  8  9  2  0  0  0  0
  8 38  1  0  0  0  0
  9 10  1  0  0  0  0
  9 39  1  0  0  0  0
 10 11  1  0  0  0  0
 11 27  2  0  0  0  0
 11 12  1  0  0  0  0
 12 13  2  0  0  0  0
 13 17  1  0  0  0  0
 13 14  1  0  0  0  0
 14 15  1  0  0  0  0
 14 26  2  0  0  0  0
 15 16  2  0  0  0  0
 15 25  1  0  0  0  0
 16 17  1  0  0  0  0
 17 18  1  0  0  0  0
 18 19  1  0  0  0  0
 18 40  1  0  0  0  0
 18 41  1  0  0  0  0
 19 24  2  0  0  0  0
 19 20  1  0  0  0  0
 20 21  2  0  0  0  0
 20 42  1  0  0  0  0
 21 22  1  0  0  0  0
 21 43  1  0  0  0  0
 22 23  2  0  0  0  0
 22 44  1  0  0  0  0
 23 24  1  0  0  0  0
 23 45  1  0  0  0  0
 24 46  1  0  0  0  0
 25 47  1  0  0  0  0
 25 48  1  0  0  0  0
 25 49  1  0  0  0  0
 26 27  1  0  0  0  0
 26 28  1  0  0  0  0
M  CHG  1  28  -1
M  END
$$$$
CHEMBL361582
  -OEChem-07121202283D

 67 71  0     0  0  0  0  0  0999 V2000
   -0.0187    1.5258    0.0104 C   0  0  0  0  0  0  0  0  0  0  0  0
    0.0021   -0.0041    0.0020 C   0  0  0  0  0  0  0  0  0  0  0  0
   -1.3386   -0.4987    0.0122 O   0  0  0  0  0  0  0  0  0  0  0  0
   -1.4982   -1.8470    0.0064 C   0  0  0  0  0  0  0  0  0  0  0  0
   -0.3896   -2.6789   -0.0029 C   0  0  0  0  0  0  0  0  0  0  0  0
   -0.5533   -4.0507   -0.0087 C   0  0  0  0  0  0  0  0  0  0  0  0
   -1.8226   -4.6040   -0.0058 C   0  0  0  0  0  0  0  0  0  0  0  0
   -2.9357   -3.7901    0.0030 C   0  0  0  0  0  0  0  0  0  0  0  0
   -2.7834   -2.4028    0.0157 C   0  0  0  0  0  0  0  0  0  0  0  0
   -3.9720   -1.5253    0.0323 C   0  0  0  0  0  0  0  0  0  0  0  0
   -5.2250   -2.1039    0.0468 N   0  0  0  0  0  0  0  0  0  0  0  0
   -6.3358   -1.3333    0.0623 C   0  0  0  0  0  0  0  0  0  0  0  0
   -6.1699    0.1194    0.0635 C   0  0  0  0  0  0  0  0  0  0  0  0
   -7.0275    1.1913    0.0761 C   0  0  0  0  0  0  0  0  0  0  0  0
   -6.2823    2.2975    0.0692 N   0  0  0  0  0  0  0  0  0  0  0  0
   -5.0099    1.9762    0.0531 C   0  0  0  0  0  0  0  0  0  0  0  0
   -4.8876    0.6411    0.0489 N   0  0  0  0  0  0  0  0  0  0  0  0
   -3.7984   -0.2349    0.0380 N   0  0  0  0  0  0  0  0  0  0  0  0
   -3.8646    2.9556    0.0403 C   0  0  0  0  0  0  0  0  0  0  0  0
   -3.9583    3.8943    1.2609 C   0  0  0  0  0  0  0  0  0  0  0  0
   -3.4870    5.2674    0.7212 C   0  0  0  0  0  0  0  0  0  0  0  0
   -4.0919    5.3004   -0.7043 C   0  0  0  0  0  0  0  0  0  0  0  0
   -3.9495    3.8497   -1.2092 C   0  0  0  0  0  0  0  0  0  0  0  0
   -8.5331    1.1296    0.0943 C   0  0  0  0  0  0  0  0  0  0  0  0
   -7.4448   -1.8357    0.0743 O   0  0  0  0  0  0  0  0  0  0  0  0
   -2.0162   -6.3553   -0.0139 S   0  0  0  0  0  0  0  0  0  0  0  0
   -3.3012   -6.6193   -0.5603 O   0  0  0  0  0  0  0  0  0  0  0  0
   -0.8256   -6.8930   -0.5730 O   0  0  0  0  0  0  0  0  0  0  0  0
   -2.0628   -6.8501    1.5657 N   0  0  0  0  0  0  0  0  0  0  0  0
   -0.8288   -7.2086    2.2812 C   0  0  0  0  0  0  0  0  0  0  0  0
   -0.7924   -6.4377    3.6051 C   0  0  0  0  0  0  0  0  0  0  0  0
   -2.0354   -6.6866    4.3474 N   0  0  0  0  0  0  0  0  0  0  0  0
   -3.2041   -6.1824    3.6139 C   0  0  0  0  0  0  0  0  0  0  0  0
   -3.3387   -6.9370    2.2923 C   0  0  0  0  0  0  0  0  0  0  0  0
   -1.9690   -6.1060    5.6951 C   0  0  0  0  0  0  0  0  0  0  0  0
    1.0039    1.9031    0.0027 H   0  0  0  0  0  0  0  0  0  0  0  0
   -0.5459    1.8868   -0.8726 H   0  0  0  0  0  0  0  0  0  0  0  0
   -0.5289    1.8773    0.9072 H   0  0  0  0  0  0  0  0  0  0  0  0
    0.5123   -0.3556   -0.8948 H   0  0  0  0  0  0  0  0  0  0  0  0
    0.5293   -0.3651    0.8851 H   0  0  0  0  0  0  0  0  0  0  0  0
    0.6034   -2.2542   -0.0059 H   0  0  0  0  0  0  0  0  0  0  0  0
    0.3134   -4.6950   -0.0160 H   0  0  0  0  0  0  0  0  0  0  0  0
   -3.9240   -4.2256    0.0049 H   0  0  0  0  0  0  0  0  0  0  0  0
   -2.9154    2.4199    0.0523 H   0  0  0  0  0  0  0  0  0  0  0  0
   -4.9869    3.9566    1.6161 H   0  0  0  0  0  0  0  0  0  0  0  0
   -3.2987    3.5507    2.0578 H   0  0  0  0  0  0  0  0  0  0  0  0
   -3.8864    6.0792    1.3292 H   0  0  0  0  0  0  0  0  0  0  0  0
   -2.3987    5.3135    0.6802 H   0  0  0  0  0  0  0  0  0  0  0  0
   -5.1421    5.5898   -0.6664 H   0  0  0  0  0  0  0  0  0  0  0  0
   -3.5298    5.9830   -1.3415 H   0  0  0  0  0  0  0  0  0  0  0  0
   -3.0412    3.7485   -1.8032 H   0  0  0  0  0  0  0  0  0  0  0  0
   -4.8191    3.5751   -1.8064 H   0  0  0  0  0  0  0  0  0  0  0  0
   -8.8836    1.1127    1.1262 H   0  0  0  0  0  0  0  0  0  0  0  0
   -8.9388    2.0050   -0.4129 H   0  0  0  0  0  0  0  0  0  0  0  0
   -8.8659    0.2265   -0.4173 H   0  0  0  0  0  0  0  0  0  0  0  0
   -0.8195   -8.2801    2.4810 H   0  0  0  0  0  0  0  0  0  0  0  0
    0.0368   -6.9385    1.6763 H   0  0  0  0  0  0  0  0  0  0  0  0
    0.0586   -6.7731    4.1980 H   0  0  0  0  0  0  0  0  0  0  0  0
   -0.6972   -5.3710    3.4024 H   0  0  0  0  0  0  0  0  0  0  0  0
   -4.1021   -6.3326    4.2132 H   0  0  0  0  0  0  0  0  0  0  0  0
   -3.0753   -5.1193    3.4111 H   0  0  0  0  0  0  0  0  0  0  0  0
   -4.1317   -6.4874    1.6946 H   0  0  0  0  0  0  0  0  0  0  0  0
   -3.5753   -7.9818    2.4931 H   0  0  0  0  0  0  0  0  0  0  0  0
   -1.8165   -5.0294    5.6198 H   0  0  0  0  0  0  0  0  0  0  0  0
   -2.9018   -6.3048    6.2228 H   0  0  0  0  0  0  0  0  0  0  0  0
   -1.1394   -6.5530    6.2429 H   0  0  0  0  0  0  0  0  0  0  0  0
   -5.3092   -3.0702    0.0457 H   0  0  0  0  0  0  0  0  0  0  0  0
  1  2  1  0  0  0  0
  1 36  1  0  0  0  0
  1 37  1  0  0  0  0
  1 38  1  0  0  0  0
  2  3  1  0  0  0  0
  2 39  1  0  0  0  0
  2 40  1  0  0  0  0
  3  4  1  0  0  0  0
  4  9  2  0  0  0  0
  4  5  1  0  0  0  0
  5  6  2  0  0  0  0
  5 41  1  0  0  0  0
  6  7  1  0  0  0  0
  6 42  1  0  0  0  0
  7  8  2  0  0  0  0
  7 26  1  0  0  0  0
  8  9  1  0  0  0  0
  8 43  1  0  0  0  0
  9 10  1  0  0  0  0
 10 18  2  0  0  0  0
 10 11  1  0  0  0  0
 11 12  1  0  0  0  0
 11 67  1  0  0  0  0
 12 13  1  0  0  0  0
 12 25  2  0  0  0  0
 13 17  1  0  0  0  0
 13 14  2  0  0  0  0
 14 15  1  0  0  0  0
 14 24  1  0  0  0  0
 15 16  2  0  0  0  0
 16 17  1  0  0  0  0
 16 19  1  0  0  0  0
 17 18  1  0  0  0  0
 19 23  1  0  0  0  0
 19 20  1  0  0  0  0
 19 44  1  0  0  0  0
 20 21  1  0  0  0  0
 20 45  1  0  0  0  0
 20 46  1  0  0  0  0
 21 22  1  0  0  0  0
 21 47  1  0  0  0  0
 21 48  1  0  0  0  0
 22 23  1  0  0  0  0
 22 49  1  0  0  0  0
 22 50  1  0  0  0  0
 23 51  1  0  0  0  0
 23 52  1  0  0  0  0
 24 53  1  0  0  0  0
 24 54  1  0  0  0  0
 24 55  1  0  0  0  0
 26 27  2  0  0  0  0
 26 28  2  0  0  0  0
 26 29  1  0  0  0  0
 29 34  1  0  0  0  0
 29 30  1  0  0  0  0
 30 31  1  0  0  0  0
 30 56  1  0  0  0  0
 30 57  1  0  0  0  0
 31 32  1  0  0  0  0
 31 58  1  0  0  0  0
 31 59  1  0  0  0  0
 32 33  1  0  0  0  0
 32 35  1  0  0  0  0
 33 34  1  0  0  0  0
 33 60  1  0  0  0  0
 33 61  1  0  0  0  0
 34 62  1  0  0  0  0
 34 63  1  0  0  0  0
 35 64  1  0  0  0  0
 35 65  1  0  0  0  0
 35 66  1  0  0  0  0
M  END
$$$$
CHEMBL361582
  -OEChem-07121202283D

 68 72  0     0  0  0  0  0  0999 V2000
   -0.0187    1.5258    0.0104 C   0  0  0  0  0  0  0  0  0  0  0  0
    0.0021   -0.0041    0.0020 C   0  0  0  0  0  0  0  0  0  0  0  0
   -1.3386   -0.4987    0.0122 O   0  0  0  0  0  0  0  0  0  0  0  0
   -1.4982   -1.8470    0.0064 C   0  0  0  0  0  0  0  0  0  0  0  0
   -0.3896   -2.6789   -0.0029 C   0  0  0  0  0  0  0  0  0  0  0  0
   -0.5533   -4.0507   -0.0087 C   0  0  0  0  0  0  0  0  0  0  0  0
   -1.8226   -4.6040   -0.0058 C   0  0  0  0  0  0  0  0  0  0  0  0
   -2.9357   -3.7901    0.0030 C   0  0  0  0  0  0  0  0  0  0  0  0
   -2.7834   -2.4028    0.0157 C   0  0  0  0  0  0  0  0  0  0  0  0
   -3.9720   -1.5253    0.0323 C   0  0  0  0  0  0  0  0  0  0  0  0
   -5.2250   -2.1039    0.0468 N   0  0  0  0  0  0  0  0  0  0  0  0
   -6.3358   -1.3333    0.0623 C   0  0  0  0  0  0  0  0  0  0  0  0
   -6.1699    0.1194    0.0635 C   0  0  0  0  0  0  0  0  0  0  0  0
   -7.0275    1.1913    0.0761 C   0  0  0  0  0  0  0  0  0  0  0  0
   -6.2823    2.2975    0.0692 N   0  0  0  0  0  0  0  0  0  0  0  0
   -5.0099    1.9762    0.0531 C   0  0  0  0  0  0  0  0  0  0  0  0
   -4.8876    0.6411    0.0489 N   0  0  0  0  0  0  0  0  0  0  0  0
   -3.7984   -0.2349    0.0380 N   0  0  0  0  0  0  0  0  0  0  0  0
   -3.8646    2.9556    0.0403 C   0  0  0  0  0  0  0  0  0  0  0  0
   -3.9583    3.8943    1.2609 C   0  0  0  0  0  0  0  0  0  0  0  0
   -3.4870    5.2674    0.7212 C   0  0  0  0  0  0  0  0  0  0  0  0
   -4.0919    5.3004   -0.7043 C   0  0  0  0  0  0  0  0  0  0  0  0
   -3.9495    3.8497   -1.2092 C   0  0  0  0  0  0  0  0  0  0  0  0
   -8.5331    1.1296    0.0943 C   0  0  0  0  0  0  0  0  0  0  0  0
   -7.4448   -1.8357    0.0743 O   0  0  0  0  0  0  0  0  0  0  0  0
   -2.0162   -6.3553   -0.0139 S   0  0  0  0  0  0  0  0  0  0  0  0
   -3.3012   -6.6193   -0.5603 O   0  0  0  0  0  0  0  0  0  0  0  0
   -0.8256   -6.8930   -0.5730 O   0  0  0  0  0  0  0  0  0  0  0  0
   -2.0628   -6.8501    1.5657 N   0  0  0  0  0  0  0  0  0  0  0  0
   -0.8294   -7.2089    2.2827 C   0  0  0  0  0  0  0  0  0  0  0  0
   -0.8041   -6.4518    3.6146 C   0  0  0  0  0  0  0  0  0  0  0  0
   -2.0397   -6.7294    4.3578 N   0  3  0  0  0  0  0  0  0  0  0  0
   -3.1950   -6.1983    3.6235 C   0  0  0  0  0  0  0  0  0  0  0  0
   -3.3382   -6.9375    2.2937 C   0  0  0  0  0  0  0  0  0  0  0  0
   -1.9673   -6.0929    5.6798 C   0  0  0  0  0  0  0  0  0  0  0  0
    1.0039    1.9031    0.0027 H   0  0  0  0  0  0  0  0  0  0  0  0
   -0.5459    1.8868   -0.8726 H   0  0  0  0  0  0  0  0  0  0  0  0
   -0.5289    1.8773    0.9072 H   0  0  0  0  0  0  0  0  0  0  0  0
    0.5123   -0.3556   -0.8948 H   0  0  0  0  0  0  0  0  0  0  0  0
    0.5293   -0.3651    0.8851 H   0  0  0  0  0  0  0  0  0  0  0  0
    0.6034   -2.2542   -0.0059 H   0  0  0  0  0  0  0  0  0  0  0  0
    0.3134   -4.6950   -0.0160 H   0  0  0  0  0  0  0  0  0  0  0  0
   -3.9240   -4.2256    0.0049 H   0  0  0  0  0  0  0  0  0  0  0  0
   -2.9154    2.4199    0.0523 H   0  0  0  0  0  0  0  0  0  0  0  0
   -4.9869    3.9566    1.6161 H   0  0  0  0  0  0  0  0  0  0  0  0
   -3.2987    3.5507    2.0578 H   0  0  0  0  0  0  0  0  0  0  0  0
   -3.8864    6.0792    1.3292 H   0  0  0  0  0  0  0  0  0  0  0  0
   -2.3987    5.3135    0.6802 H   0  0  0  0  0  0  0  0  0  0  0  0
   -5.1421    5.5898   -0.6664 H   0  0  0  0  0  0  0  0  0  0  0  0
   -3.5298    5.9830   -1.3415 H   0  0  0  0  0  0  0  0  0  0  0  0
   -3.0412    3.7485   -1.8032 H   0  0  0  0  0  0  0  0  0  0  0  0
   -4.8191    3.5751   -1.8064 H   0  0  0  0  0  0  0  0  0  0  0  0
   -8.8836    1.1127    1.1262 H   0  0  0  0  0  0  0  0  0  0  0  0
   -8.9388    2.0050   -0.4129 H   0  0  0  0  0  0  0  0  0  0  0  0
   -8.8659    0.2265   -0.4173 H   0  0  0  0  0  0  0  0  0  0  0  0
   -0.8144   -8.2824    2.4712 H   0  0  0  0  0  0  0  0  0  0  0  0
    0.0371   -6.9269    1.6846 H   0  0  0  0  0  0  0  0  0  0  0  0
    0.0543   -6.7780    4.2018 H   0  0  0  0  0  0  0  0  0  0  0  0
   -0.7279   -5.3815    3.4229 H   0  0  0  0  0  0  0  0  0  0  0  0
   -4.0984   -6.3378    4.2172 H   0  0  0  0  0  0  0  0  0  0  0  0
   -3.0465   -5.1357    3.4315 H   0  0  0  0  0  0  0  0  0  0  0  0
   -4.1295   -6.4761    1.7029 H   0  0  0  0  0  0  0  0  0  0  0  0
   -3.5808   -7.9831    2.4833 H   0  0  0  0  0  0  0  0  0  0  0  0
   -1.8496   -5.0160    5.5586 H   0  0  0  0  0  0  0  0  0  0  0  0
   -2.8841   -6.2982    6.2326 H   0  0  0  0  0  0  0  0  0  0  0  0
   -1.1147   -6.4921    6.2291 H   0  0  0  0  0  0  0  0  0  0  0  0
   -5.3092   -3.0702    0.0457 H   0  0  0  0  0  0  0  0  0  0  0  0
   -2.1450   -7.7263    4.4726 H   0  0  0  0  0  0  0  0  0  0  0  0
  1  2  1  0  0  0  0
  1 36  1  0  0  0  0
  1 37  1  0  0  0  0
  1 38  1  0  0  0  0
  2  3  1  0  0  0  0
  2 39  1  0  0  0  0
  2 40  1  0  0  0  0
  3  4  1  0  0  0  0
  4  9  2  0  0  0  0
  4  5  1  0  0  0  0
  5  6  2  0  0  0  0
  5 41  1  0  0  0  0
  6  7  1  0  0  0  0
  6 42  1  0  0  0  0
  7  8  2  0  0  0  0
  7 26  1  0  0  0  0
  8  9  1  0  0  0  0
  8 43  1  0  0  0  0
  9 10  1  0  0  0  0
 10 18  2  0  0  0  0
 10 11  1  0  0  0  0
 11 12  1  0  0  0  0
 11 67  1  0  0  0  0
 12 13  1  0  0  0  0
 12 25  2  0  0  0  0
 13 17  1  0  0  0  0
 13 14  2  0  0  0  0
 14 15  1  0  0  0  0
 14 24  1  0  0  0  0
 15 16  2  0  0  0  0
 16 17  1  0  0  0  0
 16 19  1  0  0  0  0
 17 18  1  0  0  0  0
 19 23  1  0  0  0  0
 19 20  1  0  0  0  0
 19 44  1  0  0  0  0
 20 21  1  0  0  0  0
 20 45  1  0  0  0  0
 20 46  1  0  0  0  0
 21 22  1  0  0  0  0
 21 47  1  0  0  0  0
 21 48  1  0  0  0  0
 22 23  1  0  0  0  0
 22 49  1  0  0  0  0
 22 50  1  0  0  0  0
 23 51  1  0  0  0  0
 23 52  1  0  0  0  0
 24 53  1  0  0  0  0
 24 54  1  0  0  0  0
 24 55  1  0  0  0  0
 26 27  2  0  0  0  0
 26 28  2  0  0  0  0
 26 29  1  0  0  0  0
 29 34  1  0  0  0  0
 29 30  1  0  0  0  0
 30 31  1  0  0  0  0
 30 56  1  0  0  0  0
 30 57  1  0  0  0  0
 31 32  1  0  0  0  0
 31 58  1  0  0  0  0
 31 59  1  0  0  0  0
 32 33  1  0  0  0  0
 32 35  1  0  0  0  0
 32 68  1  0  0  0  0
 33 34  1  0  0  0  0
 33 60  1  0  0  0  0
 33 61  1  0  0  0  0
 34 62  1  0  0  0  0
 34 63  1  0  0  0  0
 35 64  1  0  0  0  0
 35 65  1  0  0  0  0
 35 66  1  0  0  0  0
M  CHG  1  32   1
M  END
$$$$
CHEMBL551948
  -OEChem-07121202283D

 46 48  0     1  0  0  0  0  0999 V2000
   -0.0187    1.5258    0.0104 C   0  0  0  0  0  0  0  0  0  0  0  0
    0.0021   -0.0041    0.0020 C   0  0  0  0  0  0  0  0  0  0  0  0
    0.7421   -0.5109    1.2415 C   0  0  0  0  0  0  0  0  0  0  0  0
    0.7628   -2.0407    1.2331 C   0  0  0  0  0  0  0  0  0  0  0  0
    1.5028   -2.5476    2.4727 C   0  0  0  0  0  0  0  0  0  0  0  0
    1.5227   -4.0124    2.4646 N   0  0  0  0  0  0  0  0  0  0  0  0
    0.4830   -4.7238    3.0731 C   0  0  0  0  0  0  0  0  0  0  0  0
   -0.6995   -4.0952    3.4210 C   0  0  0  0  0  0  0  0  0  0  0  0
   -1.7002   -4.8613    4.0310 C   0  0  0  0  0  0  0  0  0  0  0  0
   -1.4721   -6.2143    4.2637 C   0  0  0  0  0  0  0  0  0  0  0  0
   -0.3314   -6.7792    3.9161 N   0  0  0  0  0  0  0  0  0  0  0  0
    0.6352   -6.0899    3.3365 C   0  0  0  0  0  0  0  0  0  0  0  0
    1.8306   -6.7079    2.9658 N   0  0  3  0  0  0  0  0  0  0  0  0
    2.5554   -6.1695    1.8059 C   0  0  0  0  0  0  0  0  0  0  0  0
    2.5391   -4.6637    1.8664 C   0  0  0  0  0  0  0  0  0  0  0  0
    3.4516   -4.0327    1.3759 O   0  0  0  0  0  0  0  0  0  0  0  0
    2.3476   -7.8585    3.7107 C   0  0  0  0  0  0  0  0  0  0  0  0
   -2.9878   -4.2382    4.4248 C   0  0  0  0  0  0  0  0  0  0  0  0
   -3.2111   -2.8837    4.1838 C   0  0  0  0  0  0  0  0  0  0  0  0
   -4.4099   -2.3073    4.5509 C   0  0  0  0  0  0  0  0  0  0  0  0
   -5.3918   -3.0721    5.1585 C   0  0  0  0  0  0  0  0  0  0  0  0
   -5.1749   -4.4208    5.4008 C   0  0  0  0  0  0  0  0  0  0  0  0
   -3.9791   -5.0068    5.0314 C   0  0  0  0  0  0  0  0  0  0  0  0
   -6.1354   -5.1631    5.9938 F   0  0  0  0  0  0  0  0  0  0  0  0
   -6.5637   -2.5033    5.5165 F   0  0  0  0  0  0  0  0  0  0  0  0
    1.0039    1.9031    0.0027 H   0  0  0  0  0  0  0  0  0  0  0  0
   -0.5459    1.8868   -0.8726 H   0  0  0  0  0  0  0  0  0  0  0  0
   -0.5289    1.8773    0.9072 H   0  0  0  0  0  0  0  0  0  0  0  0
   -1.0205   -0.3814    0.0098 H   0  0  0  0  0  0  0  0  0  0  0  0
    0.5123   -0.3556   -0.8948 H   0  0  0  0  0  0  0  0  0  0  0  0
    1.7647   -0.1336    1.2338 H   0  0  0  0  0  0  0  0  0  0  0  0
    0.2319   -0.1594    2.1383 H   0  0  0  0  0  0  0  0  0  0  0  0
   -0.2598   -2.4180    1.2409 H   0  0  0  0  0  0  0  0  0  0  0  0
    1.2730   -2.3923    0.3363 H   0  0  0  0  0  0  0  0  0  0  0  0
    2.5254   -2.1703    2.4649 H   0  0  0  0  0  0  0  0  0  0  0  0
    0.9926   -2.1961    3.3695 H   0  0  0  0  0  0  0  0  0  0  0  0
   -0.8464   -3.0429    3.2278 H   0  0  0  0  0  0  0  0  0  0  0  0
   -2.2393   -6.8101    4.7357 H   0  0  0  0  0  0  0  0  0  0  0  0
    3.5854   -6.5258    1.8223 H   0  0  0  0  0  0  0  0  0  0  0  0
    2.0693   -6.4987    0.8875 H   0  0  0  0  0  0  0  0  0  0  0  0
    1.9559   -8.7783    3.2765 H   0  0  0  0  0  0  0  0  0  0  0  0
    3.4363   -7.8665    3.6574 H   0  0  0  0  0  0  0  0  0  0  0  0
    2.0354   -7.7869    4.7526 H   0  0  0  0  0  0  0  0  0  0  0  0
   -2.4465   -2.2858    3.7104 H   0  0  0  0  0  0  0  0  0  0  0  0
   -4.5827   -1.2576    4.3644 H   0  0  0  0  0  0  0  0  0  0  0  0
   -3.8117   -6.0576    5.2160 H   0  0  0  0  0  0  0  0  0  0  0  0
  1  2  1  0  0  0  0
  1 26  1  0  0  0  0
  1 27  1  0  0  0  0
  1 28  1  0  0  0  0
  2  3  1  0  0  0  0
  2 29  1  0  0  0  0
  2 30  1  0  0  0  0
  3  4  1  0  0  0  0
  3 31  1  0  0  0  0
  3 32  1  0  0  0  0
  4  5  1  0  0  0  0
  4 33  1  0  0  0  0
  4 34  1  0  0  0  0
  5  6  1  0  0  0  0
  5 35  1  0  0  0  0
  5 36  1  0  0  0  0
  6 15  1  0  0  0  0
  6  7  1  0  0  0  0
  7 12  2  0  0  0  0
  7  8  1  0  0  0  0
  8  9  2  0  0  0  0
  8 37  1  0  0  0  0
  9 10  1  0  0  0  0
  9 18  1  0  0  0  0
 10 11  2  0  0  0  0
 10 38  1  0  0  0  0
 11 12  1  0  0  0  0
 12 13  1  0  0  0  0
 13 14  1  0  0  0  0
 13 17  1  0  0  0  0
 14 15  1  0  0  0  0
 14 39  1  0  0  0  0
 14 40  1  0  0  0  0
 15 16  2  0  0  0  0
 17 41  1  0  0  0  0
 17 42  1  0  0  0  0
 17 43  1  0  0  0  0
 18 23  2  0  0  0  0
 18 19  1  0  0  0  0
 19 20  2  0  0  0  0
 19 44  1  0  0  0  0
 20 21  1  0  0  0  0
 20 45  1  0  0  0  0
 21 22  2  0  0  0  0
 21 25  1  0  0  0  0
 22 23  1  0  0  0  0
 22 24  1  0  0  0  0
 23 46  1  0  0  0  0
M  END
$$$$
CHEMBL24323
  -OEChem-07121202283D

 52 55  0     0  0  0  0  0  0999 V2000
   -0.0173    1.4248    0.0099 C   0  0  0  0  0  0  0  0  0  0  0  0
    0.0021   -0.0041    0.0020 O   0  0  0  0  0  0  0  0  0  0  0  0
    0.6260   -0.6185    1.0418 C   0  0  0  0  0  0  0  0  0  0  0  0
    1.1894    0.1348    2.0291 C   0  0  0  0  0  0  0  0  0  0  0  0
    1.8362   -0.4955    3.1082 C   0  0  0  0  0  0  0  0  0  0  0  0
    2.4225    0.2564    4.1355 C   0  0  0  0  0  0  0  0  0  0  0  0
    3.0577   -0.3730    5.1949 C   0  0  0  0  0  0  0  0  0  0  0  0
    3.1269   -1.7766    5.2614 C   0  0  0  0  0  0  0  0  0  0  0  0
    2.5658   -2.5604    4.2784 C   0  0  0  0  0  0  0  0  0  0  0  0
    1.8935   -1.9119    3.1543 C   0  0  0  0  0  0  0  0  0  0  0  0
    1.3075   -2.6638    2.1295 C   0  0  0  0  0  0  0  0  0  0  0  0
    0.6771   -2.0197    1.0885 C   0  0  0  0  0  0  0  0  0  0  0  0
    0.1032   -2.7477    0.0953 O   0  0  0  0  0  0  0  0  0  0  0  0
    0.1893   -4.1702    0.2007 C   0  0  0  0  0  0  0  0  0  0  0  0
    2.6445   -4.0376    4.3574 C   0  0  0  0  0  0  0  0  0  0  0  0
    3.8824   -4.6757    4.2847 C   0  0  0  0  0  0  0  0  0  0  0  0
    3.9539   -6.0559    4.3587 C   0  0  0  0  0  0  0  0  0  0  0  0
    2.7921   -6.8066    4.5050 C   0  0  0  0  0  0  0  0  0  0  0  0
    1.5564   -6.1719    4.5777 C   0  0  0  0  0  0  0  0  0  0  0  0
    1.4814   -4.7916    4.5104 C   0  0  0  0  0  0  0  0  0  0  0  0
    0.4218   -6.9080    4.7208 O   0  0  0  0  0  0  0  0  0  0  0  0
   -0.8124   -6.1910    4.7886 C   0  0  0  0  0  0  0  0  0  0  0  0
    2.8643   -8.1633    4.5766 O   0  0  0  0  0  0  0  0  0  0  0  0
    3.0111   -8.7374    5.8770 C   0  0  0  0  0  0  0  0  0  0  0  0
    5.1609   -6.6786    4.2879 O   0  0  0  0  0  0  0  0  0  0  0  0
    6.3125   -5.8461    4.1372 C   0  0  0  0  0  0  0  0  0  0  0  0
    3.8783   -2.0999    6.5290 C   0  0  0  0  0  0  0  0  0  0  0  0
    4.2108   -0.8513    7.1405 O   0  0  0  0  0  0  0  0  0  0  0  0
    3.7466    0.1583    6.3870 C   0  0  0  0  0  0  0  0  0  0  0  0
    3.8750    1.3377    6.6486 O   0  0  0  0  0  0  0  0  0  0  0  0
    1.0053    1.8021    0.0021 H   0  0  0  0  0  0  0  0  0  0  0  0
   -0.5445    1.7859   -0.8732 H   0  0  0  0  0  0  0  0  0  0  0  0
   -0.5275    1.7763    0.9067 H   0  0  0  0  0  0  0  0  0  0  0  0
    1.1396    1.2126    1.9828 H   0  0  0  0  0  0  0  0  0  0  0  0
    2.3794    1.3349    4.1014 H   0  0  0  0  0  0  0  0  0  0  0  0
    1.3469   -3.7427    2.1567 H   0  0  0  0  0  0  0  0  0  0  0  0
    1.2370   -4.4706    0.2162 H   0  0  0  0  0  0  0  0  0  0  0  0
   -0.2958   -4.4964    1.1207 H   0  0  0  0  0  0  0  0  0  0  0  0
   -0.3075   -4.6287   -0.6543 H   0  0  0  0  0  0  0  0  0  0  0  0
    4.7846   -4.0932    4.1704 H   0  0  0  0  0  0  0  0  0  0  0  0
    0.5222   -4.2990    4.5717 H   0  0  0  0  0  0  0  0  0  0  0  0
   -1.6362   -6.8957    4.9023 H   0  0  0  0  0  0  0  0  0  0  0  0
   -0.7929   -5.5140    5.6426 H   0  0  0  0  0  0  0  0  0  0  0  0
   -0.9496   -5.6164    3.8725 H   0  0  0  0  0  0  0  0  0  0  0  0
    2.1595   -8.4564    6.4965 H   0  0  0  0  0  0  0  0  0  0  0  0
    3.0559   -9.8232    5.7918 H   0  0  0  0  0  0  0  0  0  0  0  0
    3.9300   -8.3707    6.3344 H   0  0  0  0  0  0  0  0  0  0  0  0
    6.2260   -5.2693    3.2164 H   0  0  0  0  0  0  0  0  0  0  0  0
    6.3831   -5.1663    4.9864 H   0  0  0  0  0  0  0  0  0  0  0  0
    7.2070   -6.4675    4.0940 H   0  0  0  0  0  0  0  0  0  0  0  0
    3.2475   -2.6862    7.1972 H   0  0  0  0  0  0  0  0  0  0  0  0
    4.7873   -2.6532    6.2928 H   0  0  0  0  0  0  0  0  0  0  0  0
  1  2  1  0  0  0  0
  1 31  1  0  0  0  0
  1 32  1  0  0  0  0
  1 33  1  0  0  0  0
  2  3  1  0  0  0  0
  3 12  2  0  0  0  0
  3  4  1  0  0  0  0
  4  5  2  0  0  0  0
  4 34  1  0  0  0  0
  5 10  1  0  0  0  0
  5  6  1  0  0  0  0
  6  7  2  0  0  0  0
  6 35  1  0  0  0  0
  7 29  1  0  0  0  0
  7  8  1  0  0  0  0
  8  9  2  0  0  0  0
  8 27  1  0  0  0  0
  9 10  1  0  0  0  0
  9 15  1  0  0  0  0
 10 11  2  0  0  0  0
 11 12  1  0  0  0  0
 11 36  1  0  0  0  0
 12 13  1  0  0  0  0
 13 14  1  0  0  0  0
 14 37  1  0  0  0  0
 14 38  1  0  0  0  0
 14 39  1  0  0  0  0
 15 20  2  0  0  0  0
 15 16  1  0  0  0  0
 16 17  2  0  0  0  0
 16 40  1  0  0  0  0
 17 18  1  0  0  0  0
 17 25  1  0  0  0  0
 18 19  2  0  0  0  0
 18 23  1  0  0  0  0
 19 20  1  0  0  0  0
 19 21  1  0  0  0  0
 20 41  1  0  0  0  0
 21 22  1  0  0  0  0
 22 42  1  0  0  0  0
 22 43  1  0  0  0  0
 22 44  1  0  0  0  0
 23 24  1  0  0  0  0
 24 45  1  0  0  0  0
 24 46  1  0  0  0  0
 24 47  1  0  0  0  0
 25 26  1  0  0  0  0
 26 48  1  0  0  0  0
 26 49  1  0  0  0  0
 26 50  1  0  0  0  0
 27 28  1  0  0  0  0
 27 51  1  0  0  0  0
 27 52  1  0  0  0  0
 28 29  1  0  0  0  0
 29 30  2  0  0  0  0
M  END
$$$$
CHEMBL1160515
  -OEChem-07121202283D

 58 63  0     1  0  0  0  0  0999 V2000
    0.4578    1.3727    1.7873 C   0  0  0  0  0  0  0  0  0  0  0  0
    0.6187    0.0147    1.9999 C   0  0  0  0  0  0  0  0  0  0  0  0
    1.6676   -0.6594    1.4105 C   0  0  0  0  0  0  0  0  0  0  0  0
    2.5689    0.0319    0.5971 C   0  0  0  0  0  0  0  0  0  0  0  0
    2.4003    1.4028    0.3869 C   0  0  0  0  0  0  0  0  0  0  0  0
    1.3468    2.0639    0.9827 C   0  0  0  0  0  0  0  0  0  0  0  0
    3.6950   -0.6831   -0.0372 C   0  0  0  0  0  0  0  0  0  0  0  0
    4.5534   -0.0601   -0.6304 O   0  0  0  0  0  0  0  0  0  0  0  0
    3.7780   -2.1576    0.0496 C   0  0  0  0  0  0  0  0  0  0  0  0
    2.6106   -2.9242    0.0452 C   0  0  0  0  0  0  0  0  0  0  0  0
    2.6881   -4.2975    0.1256 C   0  0  0  0  0  0  0  0  0  0  0  0
    3.9335   -4.9227    0.2119 C   0  0  0  0  0  0  0  0  0  0  0  0
    5.1007   -4.1564    0.2167 C   0  0  0  0  0  0  0  0  0  0  0  0
    5.0238   -2.7835    0.1301 C   0  0  0  0  0  0  0  0  0  0  0  0
    4.0165   -6.3970    0.2986 C   0  0  0  0  0  0  0  0  0  0  0  0
    3.0013   -7.0636    0.2948 O   0  0  0  0  0  0  0  0  0  0  0  0
    5.2179   -7.0002    0.3819 O   0  0  0  0  0  0  0  0  0  0  0  0
    5.2233   -8.4269    0.4628 C   0  0  2  0  0  0  0  0  0  0  0  0
    6.4967   -8.9247    1.1585 C   0  0  1  0  0  0  0  0  0  0  0  0
    7.4261   -9.1609   -0.0628 C   0  0  1  0  0  0  0  0  0  0  0  0
    8.6404   -9.9497    0.3859 C   0  0  0  0  0  0  0  0  0  0  0  0
    9.3961   -9.0859    1.2685 O   0  0  0  0  0  0  0  0  0  0  0  0
    8.6547   -8.3158    2.4903 P   0  0  2  0  0  0  0  0  0  0  0  0
    8.5775   -9.2391    3.7267 O   0  0  0  0  0  0  0  0  0  0  0  0
    7.1509   -7.9481    1.9742 O   0  0  0  0  0  0  0  0  0  0  0  0
    9.4242   -7.0237    2.8442 O   0  5  0  0  0  0  0  0  0  0  0  0
    6.5638   -9.7971   -1.0025 O   0  0  0  0  0  0  0  0  0  0  0  0
    5.3212   -9.0541   -0.9506 C   0  0  1  0  0  0  0  0  0  0  0  0
    4.1900   -9.9577   -1.1748 N   0  0  0  0  0  0  0  0  0  0  0  0
    4.1837  -11.3079   -0.9757 C   0  0  0  0  0  0  0  0  0  0  0  0
    3.0137  -11.7922   -1.2742 N   0  0  0  0  0  0  0  0  0  0  0  0
    2.2021  -10.7859   -1.6811 C   0  0  0  0  0  0  0  0  0  0  0  0
    2.9447   -9.6014   -1.6165 C   0  0  0  0  0  0  0  0  0  0  0  0
    2.3743   -8.4416   -1.9629 N   0  0  0  0  0  0  0  0  0  0  0  0
    1.1230   -8.3924   -2.3620 C   0  0  0  0  0  0  0  0  0  0  0  0
    0.3482   -9.5109   -2.4430 N   0  0  0  0  0  0  0  0  0  0  0  0
    0.8579  -10.7193   -2.1167 C   0  0  0  0  0  0  0  0  0  0  0  0
    0.1724  -11.7253   -2.1840 O   0  0  0  0  0  0  0  0  0  0  0  0
    0.5807   -7.1799   -2.7067 N   0  0  0  0  0  0  0  0  0  0  0  0
   -0.3679    1.8947    2.2477 H   0  0  0  0  0  0  0  0  0  0  0  0
   -0.0785   -0.5184    2.6293 H   0  0  0  0  0  0  0  0  0  0  0  0
    1.7922   -1.7191    1.5776 H   0  0  0  0  0  0  0  0  0  0  0  0
    3.0935    1.9435   -0.2405 H   0  0  0  0  0  0  0  0  0  0  0  0
    1.2153    3.1237    0.8211 H   0  0  0  0  0  0  0  0  0  0  0  0
    1.6472   -2.4406   -0.0208 H   0  0  0  0  0  0  0  0  0  0  0  0
    1.7854   -4.8903    0.1222 H   0  0  0  0  0  0  0  0  0  0  0  0
    6.0640   -4.6402    0.2838 H   0  0  0  0  0  0  0  0  0  0  0  0
    5.9269   -2.1911    0.1289 H   0  0  0  0  0  0  0  0  0  0  0  0
    4.3338   -8.7847    0.9814 H   0  0  0  0  0  0  0  0  0  0  0  0
    6.3092   -9.8420    1.7167 H   0  0  0  0  0  0  0  0  0  0  0  0
    7.7445   -8.2009   -0.4693 H   0  0  0  0  0  0  0  0  0  0  0  0
    8.3259  -10.8459    0.9207 H   0  0  0  0  0  0  0  0  0  0  0  0
    9.2471  -10.2232   -0.4774 H   0  0  0  0  0  0  0  0  0  0  0  0
    5.3269   -8.2682   -1.7058 H   0  0  0  0  0  0  0  0  0  0  0  0
    5.0242  -11.8876   -0.6238 H   0  0  0  0  0  0  0  0  0  0  0  0
   -0.3414   -7.1276   -3.0032 H   0  0  0  0  0  0  0  0  0  0  0  0
    1.1195   -6.3750   -2.6540 H   0  0  0  0  0  0  0  0  0  0  0  0
   -0.5720   -9.4400   -2.7415 H   0  0  0  0  0  0  0  0  0  0  0  0
  1  6  2  0  0  0  0
  1  2  1  0  0  0  0
  1 40  1  0  0  0  0
  2  3  2  0  0  0  0
  2 41  1  0  0  0  0
  3  4  1  0  0  0  0
  3 42  1  0  0  0  0
  4  5  2  0  0  0  0
  4  7  1  0  0  0  0
  5  6  1  0  0  0  0
  5 43  1  0  0  0  0
  6 44  1  0  0  0  0
  7  8  2  0  0  0  0
  7  9  1  0  0  0  0
  9 14  2  0  0  0  0
  9 10  1  0  0  0  0
 10 11  2  0  0  0  0
 10 45  1  0  0  0  0
 11 12  1  0  0  0  0
 11 46  1  0  0  0  0
 12 13  2  0  0  0  0
 12 15  1  0  0  0  0
 13 14  1  0  0  0  0
 13 47  1  0  0  0  0
 14 48  1  0  0  0  0
 15 16  2  0  0  0  0
 15 17  1  0  0  0  0
 17 18  1  0  0  0  0
 18 28  1  0  0  0  0
 18 19  1  0  0  0  0
 18 49  1  0  0  0  0
 19 25  1  0  0  0  0
 19 20  1  0  0  0  0
 19 50  1  0  0  0  0
 20 21  1  0  0  0  0
 20 27  1  0  0  0  0
 20 51  1  0  0  0  0
 21 22  1  0  0  0  0
 21 52  1  0  0  0  0
 21 53  1  0  0  0  0
 22 23  1  0  0  0  0
 23 24  2  0  0  0  0
 23 25  1  0  0  0  0
 23 26  1  0  0  0  0
 27 28  1  0  0  0  0
 28 54  1  0  0  0  0
 28 29  1  0  0  0  0
 29 30  1  0  0  0  0
 29 33  1  0  0  0  0
 30 31  2  0  0  0  0
 30 55  1  0  0  0  0
 31 32  1  0  0  0  0
 32 37  1  0  0  0  0
 32 33  2  0  0  0  0
 33 34  1  0  0  0  0
 34 35  2  0  0  0  0
 35 39  1  0  0  0  0
 35 36  1  0  0  0  0
 36 37  1  0  0  0  0
 36 58  1  0  0  0  0
 37 38  2  0  0  0  0
 39 57  1  0  0  0  0
 39 56  1  0  0  0  0
M  CHG  1  26  -1
M  END
$$$$
CHEMBL305028
  -OEChem-07121202283D

 67 70  0     0  0  0  0  0  0999 V2000
   -0.1830    1.8124    0.2120 C   0  0  0  0  0  0  0  0  0  0  0  0
   -0.0346    0.3939    0.1239 O   0  0  0  0  0  0  0  0  0  0  0  0
   -1.1753   -0.3428    0.0497 C   0  0  0  0  0  0  0  0  0  0  0  0
   -2.4064    0.2873    0.0559 C   0  0  0  0  0  0  0  0  0  0  0  0
   -3.5774   -0.4698   -0.0204 C   0  0  0  0  0  0  0  0  0  0  0  0
   -3.5020   -1.8618   -0.1027 C   0  0  0  0  0  0  0  0  0  0  0  0
   -2.2685   -2.4871   -0.1085 C   0  0  0  0  0  0  0  0  0  0  0  0
   -1.1027   -1.7300   -0.0381 C   0  0  0  0  0  0  0  0  0  0  0  0
    0.1092   -2.3469   -0.0501 O   0  0  0  0  0  0  0  0  0  0  0  0
    0.6581   -2.7231    1.2145 C   0  0  0  0  0  0  0  0  0  0  0  0
   -2.1943   -3.8427   -0.1887 O   0  0  0  0  0  0  0  0  0  0  0  0
   -3.4299   -4.5567   -0.2640 C   0  0  0  0  0  0  0  0  0  0  0  0
   -4.8942    0.2010   -0.0135 C   0  0  0  0  0  0  0  0  0  0  0  0
   -5.8286   -0.0018    1.1041 C   0  0  0  0  0  0  0  0  0  0  0  0
   -5.5083   -0.8232    2.1825 C   0  0  0  0  0  0  0  0  0  0  0  0
   -6.4168   -0.9850    3.2121 C   0  0  0  0  0  0  0  0  0  0  0  0
   -7.6523   -0.3309    3.1767 C   0  0  0  0  0  0  0  0  0  0  0  0
   -7.9831    0.4868    2.1131 C   0  0  0  0  0  0  0  0  0  0  0  0
   -7.0769    0.6600    1.0680 C   0  0  0  0  0  0  0  0  0  0  0  0
   -7.3874    1.5203   -0.0815 C   0  0  0  0  0  0  0  0  0  0  0  0
   -8.4557    2.1018   -0.1364 O   0  0  0  0  0  0  0  0  0  0  0  0
   -6.4896    1.6655   -1.0739 N   0  0  0  0  0  0  0  0  0  0  0  0
   -5.2626    1.0321   -1.0543 C   0  0  0  0  0  0  0  0  0  0  0  0
   -4.3312    1.2414   -2.1671 C   0  0  0  0  0  0  0  0  0  0  0  0
   -3.3101    0.5845   -2.2372 O   0  0  0  0  0  0  0  0  0  0  0  0
   -4.6069    2.1627   -3.1134 O   0  0  0  0  0  0  0  0  0  0  0  0
   -3.6553    2.3136   -4.1687 C   0  0  0  0  0  0  0  0  0  0  0  0
   -6.8228    2.5290   -2.2095 C   0  0  0  0  0  0  0  0  0  0  0  0
   -6.5103    3.9613   -1.8601 C   0  0  0  0  0  0  0  0  0  0  0  0
   -7.4303    4.7182   -1.1590 C   0  0  0  0  0  0  0  0  0  0  0  0
   -7.1437    6.0320   -0.8386 C   0  0  0  0  0  0  0  0  0  0  0  0
   -5.9369    6.5887   -1.2188 C   0  0  0  0  0  0  0  0  0  0  0  0
   -5.0165    5.8315   -1.9191 C   0  0  0  0  0  0  0  0  0  0  0  0
   -5.3013    4.5164   -2.2358 C   0  0  0  0  0  0  0  0  0  0  0  0
   -8.5347   -0.5011    4.1961 O   0  0  0  0  0  0  0  0  0  0  0  0
   -9.7792    0.1947    4.0999 C   0  0  0  0  0  0  0  0  0  0  0  0
   -6.1074   -1.7852    4.2650 O   0  0  0  0  0  0  0  0  0  0  0  0
   -4.8298   -2.4249    4.2403 C   0  0  0  0  0  0  0  0  0  0  0  0
    0.8010    2.2781    0.2651 H   0  0  0  0  0  0  0  0  0  0  0  0
   -0.7109    2.1779   -0.6688 H   0  0  0  0  0  0  0  0  0  0  0  0
   -0.7525    2.0633    1.1070 H   0  0  0  0  0  0  0  0  0  0  0  0
   -2.4622    1.3640    0.1200 H   0  0  0  0  0  0  0  0  0  0  0  0
   -4.4062   -2.4495   -0.1614 H   0  0  0  0  0  0  0  0  0  0  0  0
    0.7876   -1.8351    1.8331 H   0  0  0  0  0  0  0  0  0  0  0  0
   -0.0190   -3.4172    1.7124 H   0  0  0  0  0  0  0  0  0  0  0  0
    1.6243   -3.2041    1.0625 H   0  0  0  0  0  0  0  0  0  0  0  0
   -4.0249   -4.3479    0.6251 H   0  0  0  0  0  0  0  0  0  0  0  0
   -3.9788   -4.2404   -1.1510 H   0  0  0  0  0  0  0  0  0  0  0  0
   -3.2285   -5.6263   -0.3235 H   0  0  0  0  0  0  0  0  0  0  0  0
   -4.5557   -1.3310    2.2141 H   0  0  0  0  0  0  0  0  0  0  0  0
   -8.9390    0.9890    2.0914 H   0  0  0  0  0  0  0  0  0  0  0  0
   -3.9978    3.0843   -4.8593 H   0  0  0  0  0  0  0  0  0  0  0  0
   -2.6914    2.6031   -3.7501 H   0  0  0  0  0  0  0  0  0  0  0  0
   -3.5509    1.3685   -4.7017 H   0  0  0  0  0  0  0  0  0  0  0  0
   -6.2353    2.2303   -3.0777 H   0  0  0  0  0  0  0  0  0  0  0  0
   -7.8841    2.4343   -2.4389 H   0  0  0  0  0  0  0  0  0  0  0  0
   -8.3731    4.2833   -0.8619 H   0  0  0  0  0  0  0  0  0  0  0  0
   -7.8627    6.6236   -0.2914 H   0  0  0  0  0  0  0  0  0  0  0  0
   -5.7132    7.6154   -0.9690 H   0  0  0  0  0  0  0  0  0  0  0  0
   -4.0738    6.2666   -2.2165 H   0  0  0  0  0  0  0  0  0  0  0  0
   -4.5807    3.9237   -2.7797 H   0  0  0  0  0  0  0  0  0  0  0  0
  -10.3885   -0.0279    4.9759 H   0  0  0  0  0  0  0  0  0  0  0  0
   -9.5928    1.2674    4.0500 H   0  0  0  0  0  0  0  0  0  0  0  0
  -10.3056   -0.1249    3.2005 H   0  0  0  0  0  0  0  0  0  0  0  0
   -4.7103   -3.0327    5.1372 H   0  0  0  0  0  0  0  0  0  0  0  0
   -4.7590   -3.0612    3.3581 H   0  0  0  0  0  0  0  0  0  0  0  0
   -4.0455   -1.6687    4.2067 H   0  0  0  0  0  0  0  0  0  0  0  0
  1  2  1  0  0  0  0
  1 39  1  0  0  0  0
  1 40  1  0  0  0  0
  1 41  1  0  0  0  0
  2  3  1  0  0  0  0
  3  8  2  0  0  0  0
  3  4  1  0  0  0  0
  4  5  2  0  0  0  0
  4 42  1  0  0  0  0
  5  6  1  0  0  0  0
  5 13  1  0  0  0  0
  6  7  2  0  0  0  0
  6 43  1  0  0  0  0
  7  8  1  0  0  0  0
  7 11  1  0  0  0  0
  8  9  1  0  0  0  0
  9 10  1  0  0  0  0
 10 44  1  0  0  0  0
 10 45  1  0  0  0  0
 10 46  1  0  0  0  0
 11 12  1  0  0  0  0
 12 47  1  0  0  0  0
 12 48  1  0  0  0  0
 12 49  1  0  0  0  0
 13 23  2  0  0  0  0
 13 14  1  0  0  0  0
 14 19  2  0  0  0  0
 14 15  1  0  0  0  0
 15 16  2  0  0  0  0
 15 50  1  0  0  0  0
 16 17  1  0  0  0  0
 16 37  1  0  0  0  0
 17 18  2  0  0  0  0
 17 35  1  0  0  0  0
 18 19  1  0  0  0  0
 18 51  1  0  0  0  0
 19 20  1  0  0  0  0
 20 21  2  0  0  0  0
 20 22  1  0  0  0  0
 22 23  1  0  0  0  0
 22 28  1  0  0  0  0
 23 24  1  0  0  0  0
 24 25  2  0  0  0  0
 24 26  1  0  0  0  0
 26 27  1  0  0  0  0
 27 52  1  0  0  0  0
 27 53  1  0  0  0  0
 27 54  1  0  0  0  0
 28 29  1  0  0  0  0
 28 55  1  0  0  0  0
 28 56  1  0  0  0  0
 29 34  2  0  0  0  0
 29 30  1  0  0  0  0
 30 31  2  0  0  0  0
 30 57  1  0  0  0  0
 31 32  1  0  0  0  0
 31 58  1  0  0  0  0
 32 33  2  0  0  0  0
 32 59  1  0  0  0  0
 33 34  1  0  0  0  0
 33 60  1  0  0  0  0
 34 61  1  0  0  0  0
 35 36  1  0  0  0  0
 36 62  1  0  0  0  0
 36 63  1  0  0  0  0
 36 64  1  0  0  0  0
 37 38  1  0  0  0  0
 38 65  1  0  0  0  0
 38 66  1  0  0  0  0
 38 67  1  0  0  0  0
M  END
$$$$
CHEMBL79579
  -OEChem-07121202283D

 62 66  0     1  0  0  0  0  0999 V2000
   -0.0187    1.5258    0.0104 C   0  0  0  0  0  0  0  0  0  0  0  0
    0.0021   -0.0041    0.0020 C   0  0  0  0  0  0  0  0  0  0  0  0
    0.7182   -0.4975   -1.2568 C   0  0  0  0  0  0  0  0  0  0  0  0
    0.7376   -1.9263   -1.2646 O   0  0  0  0  0  0  0  0  0  0  0  0
    1.3407   -2.5287   -2.3213 C   0  0  0  0  0  0  0  0  0  0  0  0
    1.9081   -1.7630   -3.3282 C   0  0  0  0  0  0  0  0  0  0  0  0
    2.5213   -2.3772   -4.4026 C   0  0  0  0  0  0  0  0  0  0  0  0
    2.5744   -3.7586   -4.4818 C   0  0  0  0  0  0  0  0  0  0  0  0
    2.0149   -4.5337   -3.4877 C   0  0  0  0  0  0  0  0  0  0  0  0
    1.3972   -3.9249   -2.3955 C   0  0  0  0  0  0  0  0  0  0  0  0
    0.7993   -4.7519   -1.3227 C   0  0  0  0  0  0  0  0  0  0  0  0
    0.8730   -6.0730   -1.4177 N   0  0  0  0  0  0  0  0  0  0  0  0
    0.3474   -6.8420   -0.4736 C   0  0  0  0  0  0  0  0  0  0  0  0
   -0.2931   -6.2401    0.6369 C   0  0  0  0  0  0  0  0  0  0  0  0
   -0.8550   -7.0478    1.6443 C   0  0  0  0  0  0  0  0  0  0  0  0
   -0.8142   -8.3490    1.6056 N   0  0  0  0  0  0  0  0  0  0  0  0
   -0.2311   -9.0386    0.5982 C   0  0  0  0  0  0  0  0  0  0  0  0
   -0.0662  -10.3213    0.3409 N   0  0  0  0  0  0  0  0  0  0  0  0
    0.6238  -10.4598   -0.8683 N   0  0  0  0  0  0  0  0  0  0  0  0
    0.8961   -9.2482   -1.3778 C   0  0  0  0  0  0  0  0  0  0  0  0
    0.3925   -8.3059   -0.5154 C   0  0  0  0  0  0  0  0  0  0  0  0
   -0.3435   -4.8324    0.6895 C   0  0  0  0  0  0  0  0  0  0  0  0
    0.2128   -4.1436   -0.2965 N   0  0  0  0  0  0  0  0  0  0  0  0
   -0.9417   -4.1991    1.7249 O   0  5  0  0  0  0  0  0  0  0  0  0
    3.3593   -4.5291   -5.8582 S   0  0  0  0  0  0  0  0  0  0  0  0
    2.7975   -5.8295   -5.9705 O   0  0  0  0  0  0  0  0  0  0  0  0
    3.3246   -3.5897   -6.9238 O   0  0  0  0  0  0  0  0  0  0  0  0
    4.9536   -4.7351   -5.4606 N   0  0  3  0  0  0  0  0  0  0  0  0
    6.0332   -3.7619   -5.7070 C   0  0  0  0  0  0  0  0  0  0  0  0
    7.1208   -4.1021   -4.6576 C   0  0  0  0  0  0  0  0  0  0  0  0
    7.0341   -5.6505   -4.6098 C   0  0  2  0  0  0  0  0  0  0  0  0
    7.6115   -6.0943   -5.4209 H   0  0  0  0  0  0  0  0  0  0  0  0
    5.5257   -5.9161   -4.7975 C   0  0  0  0  0  0  0  0  0  0  0  0
    7.4937   -6.1568   -3.3097 N   0  3  0  0  0  0  0  0  0  0  0  0
    7.3676   -7.6201   -3.2817 C   0  0  0  0  0  0  0  0  0  0  0  0
    8.8998   -5.7826   -3.1077 C   0  0  0  0  0  0  0  0  0  0  0  0
    1.0039    1.9031    0.0027 H   0  0  0  0  0  0  0  0  0  0  0  0
   -0.5459    1.8868   -0.8726 H   0  0  0  0  0  0  0  0  0  0  0  0
   -0.5289    1.8773    0.9072 H   0  0  0  0  0  0  0  0  0  0  0  0
    0.5293   -0.3651    0.8851 H   0  0  0  0  0  0  0  0  0  0  0  0
   -1.0205   -0.3814    0.0098 H   0  0  0  0  0  0  0  0  0  0  0  0
    0.1910   -0.1364   -2.1398 H   0  0  0  0  0  0  0  0  0  0  0  0
    1.7408   -0.1202   -1.2645 H   0  0  0  0  0  0  0  0  0  0  0  0
    1.8701   -0.6851   -3.2726 H   0  0  0  0  0  0  0  0  0  0  0  0
    2.9614   -1.7770   -5.1852 H   0  0  0  0  0  0  0  0  0  0  0  0
    2.0584   -5.6108   -3.5531 H   0  0  0  0  0  0  0  0  0  0  0  0
   -1.3390   -6.5690    2.4827 H   0  0  0  0  0  0  0  0  0  0  0  0
    1.4192   -9.0498   -2.3016 H   0  0  0  0  0  0  0  0  0  0  0  0
    6.4288   -3.8815   -6.7156 H   0  0  0  0  0  0  0  0  0  0  0  0
    5.6686   -2.7454   -5.5596 H   0  0  0  0  0  0  0  0  0  0  0  0
    8.1047   -3.7760   -4.9949 H   0  0  0  0  0  0  0  0  0  0  0  0
    6.8779   -3.6670   -3.6881 H   0  0  0  0  0  0  0  0  0  0  0  0
    5.0499   -6.0637   -3.8280 H   0  0  0  0  0  0  0  0  0  0  0  0
    5.3814   -6.7979   -5.4218 H   0  0  0  0  0  0  0  0  0  0  0  0
    6.3243   -7.8978   -3.4316 H   0  0  0  0  0  0  0  0  0  0  0  0
    7.9763   -8.0525   -4.0758 H   0  0  0  0  0  0  0  0  0  0  0  0
    7.7086   -7.9959   -2.3170 H   0  0  0  0  0  0  0  0  0  0  0  0
    8.9934   -4.6968   -3.1284 H   0  0  0  0  0  0  0  0  0  0  0  0
    9.2408   -6.1583   -2.1430 H   0  0  0  0  0  0  0  0  0  0  0  0
    9.5086   -6.2150   -3.9018 H   0  0  0  0  0  0  0  0  0  0  0  0
    0.8689  -11.3046   -1.2770 H   0  0  0  0  0  0  0  0  0  0  0  0
    6.9302   -5.7566   -2.5746 H   0  0  0  0  0  0  0  0  0  0  0  0
  1  2  1  0  0  0  0
  1 37  1  0  0  0  0
  1 38  1  0  0  0  0
  1 39  1  0  0  0  0
  2  3  1  0  0  0  0
  2 40  1  0  0  0  0
  2 41  1  0  0  0  0
  3  4  1  0  0  0  0
  3 42  1  0  0  0  0
  3 43  1  0  0  0  0
  4  5  1  0  0  0  0
  5 10  2  0  0  0  0
  5  6  1  0  0  0  0
  6  7  2  0  0  0  0
  6 44  1  0  0  0  0
  7  8  1  0  0  0  0
  7 45  1  0  0  0  0
  8  9  2  0  0  0  0
  8 25  1  0  0  0  0
  9 10  1  0  0  0  0
  9 46  1  0  0  0  0
 10 11  1  0  0  0  0
 11 23  2  0  0  0  0
 11 12  1  0  0  0  0
 12 13  2  0  0  0  0
 13 21  1  0  0  0  0
 13 14  1  0  0  0  0
 14 15  1  0  0  0  0
 14 22  2  0  0  0  0
 15 16  2  0  0  0  0
 15 47  1  0  0  0  0
 16 17  1  0  0  0  0
 17 21  1  0  0  0  0
 17 18  2  0  0  0  0
 18 19  1  0  0  0  0
 19 20  1  0  0  0  0
 19 61  1  0  0  0  0
 20 21  2  0  0  0  0
 20 48  1  0  0  0  0
 22 23  1  0  0  0  0
 22 24  1  0  0  0  0
 25 26  2  0  0  0  0
 25 27  2  0  0  0  0
 25 28  1  0  0  0  0
 28 33  1  0  0  0  0
 28 29  1  0  0  0  0
 29 30  1  0  0  0  0
 29 49  1  0  0  0  0
 29 50  1  0  0  0  0
 30 31  1  0  0  0  0
 30 51  1  0  0  0  0
 30 52  1  0  0  0  0
 31 32  1  0  0  0  0
 31 33  1  0  0  0  0
 31 34  1  0  0  0  0
 33 53  1  0  0  0  0
 33 54  1  0  0  0  0
 34 35  1  0  0  0  0
 34 36  1  0  0  0  0
 34 62  1  0  0  0  0
 35 55  1  0  0  0  0
 35 56  1  0  0  0  0
 35 57  1  0  0  0  0
 36 58  1  0  0  0  0
 36 59  1  0  0  0  0
 36 60  1  0  0  0  0
M  CHG  2  24  -1  34   1
M  END
$$$$
CHEMBL79579
  -OEChem-07121202283D

 63 67  0     1  0  0  0  0  0999 V2000
   -0.0187    1.5258    0.0104 C   0  0  0  0  0  0  0  0  0  0  0  0
    0.0021   -0.0041    0.0020 C   0  0  0  0  0  0  0  0  0  0  0  0
   -1.4333   -0.5336    0.0129 C   0  0  0  0  0  0  0  0  0  0  0  0
   -1.4139   -1.9625    0.0050 O   0  0  0  0  0  0  0  0  0  0  0  0
   -2.6145   -2.5950    0.0131 C   0  0  0  0  0  0  0  0  0  0  0  0
   -3.7894   -1.8587    0.0225 C   0  0  0  0  0  0  0  0  0  0  0  0
   -5.0105   -2.5036    0.0312 C   0  0  0  0  0  0  0  0  0  0  0  0
   -5.0722   -3.8875    0.0302 C   0  0  0  0  0  0  0  0  0  0  0  0
   -3.9144   -4.6350    0.0204 C   0  0  0  0  0  0  0  0  0  0  0  0
   -2.6725   -3.9953    0.0061 C   0  0  0  0  0  0  0  0  0  0  0  0
   -1.4293   -4.7891   -0.0106 C   0  0  0  0  0  0  0  0  0  0  0  0
   -0.2800   -4.1541   -0.0133 N   0  0  0  0  0  0  0  0  0  0  0  0
    0.8847   -4.8135   -0.0282 C   0  0  0  0  0  0  0  0  0  0  0  0
    0.8842   -6.2280   -0.0413 C   0  0  0  0  0  0  0  0  0  0  0  0
    2.0991   -6.9159   -0.0576 C   0  0  0  0  0  0  0  0  0  0  0  0
    3.2403   -6.2653   -0.0606 N   0  0  0  0  0  0  0  0  0  0  0  0
    3.3063   -4.9341   -0.0489 C   0  0  0  0  0  0  0  0  0  0  0  0
    4.3534   -4.0548   -0.0491 N   0  0  0  0  0  0  0  0  0  0  0  0
    3.8355   -2.7547   -0.0330 N   0  0  0  0  0  0  0  0  0  0  0  0
    2.5337   -2.8025   -0.0232 C   0  0  0  0  0  0  0  0  0  0  0  0
    2.1351   -4.1555   -0.0321 C   0  0  0  0  0  0  0  0  0  0  0  0
   -0.4097   -6.9186   -0.0375 C   0  0  0  0  0  0  0  0  0  0  0  0
   -1.5257   -6.1522   -0.0170 N   0  0  0  0  0  0  0  0  0  0  0  0
   -0.4776   -8.1341   -0.0486 O   0  0  0  0  0  0  0  0  0  0  0  0
   -6.6379   -4.6957    0.0419 S   0  0  0  0  0  0  0  0  0  0  0  0
   -6.4232   -5.9892    0.5896 O   0  0  0  0  0  0  0  0  0  0  0  0
   -7.5655   -3.7759    0.6013 O   0  0  0  0  0  0  0  0  0  0  0  0
   -7.0858   -4.9184   -1.5367 N   0  0  3  0  0  0  0  0  0  0  0  0
   -7.8622   -3.9667   -2.3520 C   0  0  0  0  0  0  0  0  0  0  0  0
   -7.4893   -4.3036   -3.8174 C   0  0  0  0  0  0  0  0  0  0  0  0
   -7.3676   -5.8493   -3.7603 C   0  0  2  0  0  0  0  0  0  0  0  0
   -8.3478   -6.3170   -3.8528 H   0  0  0  0  0  0  0  0  0  0  0  0
   -6.7696   -6.0953   -2.3592 C   0  0  0  0  0  0  0  0  0  0  0  0
   -6.4598   -6.3381   -4.8066 N   0  3  0  0  0  0  0  0  0  0  0  0
   -6.3376   -7.7986   -4.7058 C   0  0  0  0  0  0  0  0  0  0  0  0
   -6.9968   -5.9817   -6.1267 C   0  0  0  0  0  0  0  0  0  0  0  0
    1.0039    1.9031    0.0027 H   0  0  0  0  0  0  0  0  0  0  0  0
   -0.5459    1.8868   -0.8726 H   0  0  0  0  0  0  0  0  0  0  0  0
   -0.5289    1.8773    0.9072 H   0  0  0  0  0  0  0  0  0  0  0  0
    0.5123   -0.3556   -0.8948 H   0  0  0  0  0  0  0  0  0  0  0  0
    0.5293   -0.3651    0.8851 H   0  0  0  0  0  0  0  0  0  0  0  0
   -1.9435   -0.1821    0.9097 H   0  0  0  0  0  0  0  0  0  0  0  0
   -1.9605   -0.1726   -0.8702 H   0  0  0  0  0  0  0  0  0  0  0  0
   -3.7494   -0.7795    0.0234 H   0  0  0  0  0  0  0  0  0  0  0  0
   -5.9228   -1.9256    0.0393 H   0  0  0  0  0  0  0  0  0  0  0  0
   -3.9672   -5.7137    0.0196 H   0  0  0  0  0  0  0  0  0  0  0  0
    2.1006   -7.9958   -0.0676 H   0  0  0  0  0  0  0  0  0  0  0  0
    1.8711   -1.9497   -0.0098 H   0  0  0  0  0  0  0  0  0  0  0  0
   -8.9303   -4.1111   -2.1896 H   0  0  0  0  0  0  0  0  0  0  0  0
   -7.5765   -2.9421   -2.1139 H   0  0  0  0  0  0  0  0  0  0  0  0
   -8.2810   -3.9990   -4.5019 H   0  0  0  0  0  0  0  0  0  0  0  0
   -6.5390   -3.8468   -4.0936 H   0  0  0  0  0  0  0  0  0  0  0  0
   -5.6889   -6.2175   -2.4316 H   0  0  0  0  0  0  0  0  0  0  0  0
   -7.2168   -6.9864   -1.9187 H   0  0  0  0  0  0  0  0  0  0  0  0
   -7.3191   -8.2550   -4.8341 H   0  0  0  0  0  0  0  0  0  0  0  0
   -5.6639   -8.1613   -5.4822 H   0  0  0  0  0  0  0  0  0  0  0  0
   -5.9391   -8.0631   -3.7264 H   0  0  0  0  0  0  0  0  0  0  0  0
   -7.0875   -4.8980   -6.2015 H   0  0  0  0  0  0  0  0  0  0  0  0
   -6.3232   -6.3444   -6.9030 H   0  0  0  0  0  0  0  0  0  0  0  0
   -7.9783   -6.4381   -6.2549 H   0  0  0  0  0  0  0  0  0  0  0  0
    5.2940   -4.2915   -0.0582 H   0  0  0  0  0  0  0  0  0  0  0  0
   -5.5512   -5.9156   -4.6879 H   0  0  0  0  0  0  0  0  0  0  0  0
   -2.3994   -6.5735   -0.0105 H   0  0  0  0  0  0  0  0  0  0  0  0
  1  2  1  0  0  0  0
  1 37  1  0  0  0  0
  1 38  1  0  0  0  0
  1 39  1  0  0  0  0
  2  3  1  0  0  0  0
  2 40  1  0  0  0  0
  2 41  1  0  0  0  0
  3  4  1  0  0  0  0
  3 42  1  0  0  0  0
  3 43  1  0  0  0  0
  4  5  1  0  0  0  0
  5 10  2  0  0  0  0
  5  6  1  0  0  0  0
  6  7  2  0  0  0  0
  6 44  1  0  0  0  0
  7  8  1  0  0  0  0
  7 45  1  0  0  0  0
  8  9  2  0  0  0  0
  8 25  1  0  0  0  0
  9 10  1  0  0  0  0
  9 46  1  0  0  0  0
 10 11  1  0  0  0  0
 11 23  1  0  0  0  0
 11 12  2  0  0  0  0
 12 13  1  0  0  0  0
 13 21  2  0  0  0  0
 13 14  1  0  0  0  0
 14 15  2  0  0  0  0
 14 22  1  0  0  0  0
 15 16  1  0  0  0  0
 15 47  1  0  0  0  0
 16 17  2  0  0  0  0
 17 21  1  0  0  0  0
 17 18  1  0  0  0  0
 18 61  1  0  0  0  0
 18 19  1  0  0  0  0
 19 20  2  0  0  0  0
 20 48  1  0  0  0  0
 20 21  1  0  0  0  0
 22 23  1  0  0  0  0
 22 24  2  0  0  0  0
 23 63  1  0  0  0  0
 25 26  2  0  0  0  0
 25 27  2  0  0  0  0
 25 28  1  0  0  0  0
 28 33  1  0  0  0  0
 28 29  1  0  0  0  0
 29 30  1  0  0  0  0
 29 49  1  0  0  0  0
 29 50  1  0  0  0  0
 30 31  1  0  0  0  0
 30 51  1  0  0  0  0
 30 52  1  0  0  0  0
 31 32  1  0  0  0  0
 31 33  1  0  0  0  0
 31 34  1  0  0  0  0
 33 53  1  0  0  0  0
 33 54  1  0  0  0  0
 34 35  1  0  0  0  0
 34 36  1  0  0  0  0
 34 62  1  0  0  0  0
 35 55  1  0  0  0  0
 35 56  1  0  0  0  0
 35 57  1  0  0  0  0
 36 58  1  0  0  0  0
 36 59  1  0  0  0  0
 36 60  1  0  0  0  0
M  CHG  1  34   1
M  END
$$$$
CHEMBL79579
  -OEChem-07121202283D

 62 66  0     1  0  0  0  0  0999 V2000
   -0.0187    1.5258    0.0104 C   0  0  0  0  0  0  0  0  0  0  0  0
    0.0021   -0.0041    0.0020 C   0  0  0  0  0  0  0  0  0  0  0  0
    0.7182   -0.4975   -1.2568 C   0  0  0  0  0  0  0  0  0  0  0  0
    0.7376   -1.9263   -1.2646 O   0  0  0  0  0  0  0  0  0  0  0  0
    1.3407   -2.5287   -2.3213 C   0  0  0  0  0  0  0  0  0  0  0  0
    1.9081   -1.7630   -3.3282 C   0  0  0  0  0  0  0  0  0  0  0  0
    2.5217   -2.3772   -4.4024 C   0  0  0  0  0  0  0  0  0  0  0  0
    2.5744   -3.7585   -4.4817 C   0  0  0  0  0  0  0  0  0  0  0  0
    2.0145   -4.5336   -3.4879 C   0  0  0  0  0  0  0  0  0  0  0  0
    1.3972   -3.9249   -2.3955 C   0  0  0  0  0  0  0  0  0  0  0  0
    0.7993   -4.7519   -1.3226 C   0  0  0  0  0  0  0  0  0  0  0  0
    0.8740   -6.0709   -1.4193 N   0  0  0  0  0  0  0  0  0  0  0  0
    0.3474   -6.8420   -0.4733 C   0  0  0  0  0  0  0  0  0  0  0  0
   -0.2934   -6.2357    0.6378 C   0  0  0  0  0  0  0  0  0  0  0  0
   -0.8484   -7.0523    1.6334 C   0  0  0  0  0  0  0  0  0  0  0  0
   -0.7860   -8.3575    1.5570 N   0  0  0  0  0  0  0  0  0  0  0  0
   -0.2027   -9.0071    0.5480 C   0  0  0  0  0  0  0  0  0  0  0  0
   -0.0260  -10.3341    0.2710 N   0  0  0  0  0  0  0  0  0  0  0  0
    0.6652  -10.4415   -0.9414 N   0  0  0  0  0  0  0  0  0  0  0  0
    0.9138   -9.2501   -1.4087 C   0  0  0  0  0  0  0  0  0  0  0  0
    0.3902   -8.3001   -0.5114 C   0  0  0  0  0  0  0  0  0  0  0  0
   -0.3440   -4.8264    0.6908 C   0  0  0  0  0  0  0  0  0  0  0  0
    0.2127   -4.1408   -0.2960 N   0  0  0  0  0  0  0  0  0  0  0  0
   -0.9422   -4.1921    1.7251 O   0  5  0  0  0  0  0  0  0  0  0  0
    3.3593   -4.5292   -5.8582 S   0  0  0  0  0  0  0  0  0  0  0  0
    2.7971   -5.8293   -5.9708 O   0  0  0  0  0  0  0  0  0  0  0  0
    3.3251   -3.5895   -6.9236 O   0  0  0  0  0  0  0  0  0  0  0  0
    4.9534   -4.7357   -5.4603 N   0  0  3  0  0  0  0  0  0  0  0  0
    6.0334   -3.7628   -5.7064 C   0  0  0  0  0  0  0  0  0  0  0  0
    7.1207   -4.1034   -4.6568 C   0  0  0  0  0  0  0  0  0  0  0  0
    7.0336   -5.6518   -4.6093 C   0  0  2  0  0  0  0  0  0  0  0  0
    7.6109   -6.0957   -5.4203 H   0  0  0  0  0  0  0  0  0  0  0  0
    5.5250   -5.9169   -4.7973 C   0  0  0  0  0  0  0  0  0  0  0  0
    7.4928   -6.1585   -3.3091 N   0  3  0  0  0  0  0  0  0  0  0  0
    7.3662   -7.6218   -3.2814 C   0  0  0  0  0  0  0  0  0  0  0  0
    8.8989   -5.7848   -3.1068 C   0  0  0  0  0  0  0  0  0  0  0  0
    1.0039    1.9031    0.0027 H   0  0  0  0  0  0  0  0  0  0  0  0
   -0.5459    1.8868   -0.8726 H   0  0  0  0  0  0  0  0  0  0  0  0
   -0.5289    1.8773    0.9072 H   0  0  0  0  0  0  0  0  0  0  0  0
    0.5293   -0.3651    0.8851 H   0  0  0  0  0  0  0  0  0  0  0  0
   -1.0205   -0.3814    0.0098 H   0  0  0  0  0  0  0  0  0  0  0  0
    0.1910   -0.1364   -2.1398 H   0  0  0  0  0  0  0  0  0  0  0  0
    1.7408   -0.1202   -1.2645 H   0  0  0  0  0  0  0  0  0  0  0  0
    1.8698   -0.6851   -3.2728 H   0  0  0  0  0  0  0  0  0  0  0  0
    2.9625   -1.7770   -5.1846 H   0  0  0  0  0  0  0  0  0  0  0  0
    2.0573   -5.6108   -3.5536 H   0  0  0  0  0  0  0  0  0  0  0  0
   -1.3370   -6.5949    2.4810 H   0  0  0  0  0  0  0  0  0  0  0  0
    1.4341   -9.0291   -2.3289 H   0  0  0  0  0  0  0  0  0  0  0  0
    6.4291   -3.8824   -6.7150 H   0  0  0  0  0  0  0  0  0  0  0  0
    5.6691   -2.7462   -5.5589 H   0  0  0  0  0  0  0  0  0  0  0  0
    8.1048   -3.7777   -4.9939 H   0  0  0  0  0  0  0  0  0  0  0  0
    6.8778   -3.6685   -3.6874 H   0  0  0  0  0  0  0  0  0  0  0  0
    5.0490   -6.0646   -3.8279 H   0  0  0  0  0  0  0  0  0  0  0  0
    5.3806   -6.7986   -5.4217 H   0  0  0  0  0  0  0  0  0  0  0  0
    7.7069   -7.9978   -2.3167 H   0  0  0  0  0  0  0  0  0  0  0  0
    6.3228   -7.8991   -3.4315 H   0  0  0  0  0  0  0  0  0  0  0  0
    7.9749   -8.0542   -4.0755 H   0  0  0  0  0  0  0  0  0  0  0  0
    8.9929   -4.6990   -3.1274 H   0  0  0  0  0  0  0  0  0  0  0  0
    9.2397   -6.1607   -2.1421 H   0  0  0  0  0  0  0  0  0  0  0  0
    9.5077   -6.2172   -3.9009 H   0  0  0  0  0  0  0  0  0  0  0  0
   -0.3276  -11.0743    0.8206 H   0  0  0  0  0  0  0  0  0  0  0  0
    6.9293   -5.7582   -2.5741 H   0  0  0  0  0  0  0  0  0  0  0  0
  1  2  1  0  0  0  0
  1 37  1  0  0  0  0
  1 38  1  0  0  0  0
  1 39  1  0  0  0  0
  2  3  1  0  0  0  0
  2 40  1  0  0  0  0
  2 41  1  0  0  0  0
  3  4  1  0  0  0  0
  3 42  1  0  0  0  0
  3 43  1  0  0  0  0
  4  5  1  0  0  0  0
  5 10  2  0  0  0  0
  5  6  1  0  0  0  0
  6  7  2  0  0  0  0
  6 44  1  0  0  0  0
  7  8  1  0  0  0  0
  7 45  1  0  0  0  0
  8  9  2  0  0  0  0
  8 25  1  0  0  0  0
  9 10  1  0  0  0  0
  9 46  1  0  0  0  0
 10 11  1  0  0  0  0
 11 23  2  0  0  0  0
 11 12  1  0  0  0  0
 12 13  2  0  0  0  0
 13 21  1  0  0  0  0
 13 14  1  0  0  0  0
 14 15  1  0  0  0  0
 14 22  2  0  0  0  0
 15 16  2  0  0  0  0
 15 47  1  0  0  0  0
 16 17  1  0  0  0  0
 17 21  2  0  0  0  0
 17 18  1  0  0  0  0
 18 61  1  0  0  0  0
 18 19  1  0  0  0  0
 19 20  2  0  0  0  0
 20 48  1  0  0  0  0
 20 21  1  0  0  0  0
 22 23  1  0  0  0  0
 22 24  1  0  0  0  0
 25 26  2  0  0  0  0
 25 27  2  0  0  0  0
 25 28  1  0  0  0  0
 28 33  1  0  0  0  0
 28 29  1  0  0  0  0
 29 30  1  0  0  0  0
 29 49  1  0  0  0  0
 29 50  1  0  0  0  0
 30 31  1  0  0  0  0
 30 51  1  0  0  0  0
 30 52  1  0  0  0  0
 31 32  1  0  0  0  0
 31 33  1  0  0  0  0
 31 34  1  0  0  0  0
 33 53  1  0  0  0  0
 33 54  1  0  0  0  0
 34 35  1  0  0  0  0
 34 36  1  0  0  0  0
 34 62  1  0  0  0  0
 35 55  1  0  0  0  0
 35 56  1  0  0  0  0
 35 57  1  0  0  0  0
 36 58  1  0  0  0  0
 36 59  1  0  0  0  0
 36 60  1  0  0  0  0
M  CHG  2  24  -1  34   1
M  END
$$$$
CHEMBL342159
  -OEChem-07121202283D

 63 69  0     1  0  0  0  0  0999 V2000
   -0.0225    1.8097    0.0120 C   0  0  0  0  0  0  0  0  0  0  0  0
    0.0021   -0.0041    0.0020 S   0  0  0  0  0  0  0  0  0  0  0  0
    0.8352   -0.4880    1.0465 O   0  0  0  0  0  0  0  0  0  0  0  0
   -1.3147   -0.5105   -0.1678 O   0  0  0  0  0  0  0  0  0  0  0  0
    0.7947   -0.4113   -1.3938 N   0  5  0  0  0  0  0  0  0  0  0  0
    0.9916   -1.7526   -1.7175 C   0  0  0  0  0  0  0  0  0  0  0  0
    0.5165   -2.7481   -0.8697 C   0  0  0  0  0  0  0  0  0  0  0  0
    0.7092   -4.0744   -1.1865 C   0  0  0  0  0  0  0  0  0  0  0  0
    1.3826   -4.4198   -2.3615 C   0  0  0  0  0  0  0  0  0  0  0  0
    1.8582   -3.4172   -3.2111 C   0  0  0  0  0  0  0  0  0  0  0  0
    1.6577   -2.0929   -2.8906 C   0  0  0  0  0  0  0  0  0  0  0  0
    1.5915   -5.8398   -2.7039 C   0  0  0  0  0  0  0  0  0  0  0  0
    2.2360   -6.3047   -3.8154 C   0  0  0  0  0  0  0  0  0  0  0  0
    2.2105   -7.7009   -3.7518 C   0  0  0  0  0  0  0  0  0  0  0  0
    1.5445   -8.0343   -2.5921 C   0  0  0  0  0  0  0  0  0  0  0  0
    1.1844   -6.8903   -1.9717 O   0  0  0  0  0  0  0  0  0  0  0  0
    1.2788   -9.3922   -2.1134 C   0  0  0  0  0  0  0  0  0  0  0  0
    1.6590  -10.3509   -2.7602 O   0  0  0  0  0  0  0  0  0  0  0  0
    0.6134   -9.5808   -0.9566 N   0  0  0  0  0  0  0  0  0  0  0  0
    0.0849   -8.5420   -0.0664 C   0  0  0  0  0  0  0  0  0  0  0  0
   -0.5785   -9.2368    1.0969 C   0  0  0  0  0  0  0  0  0  0  0  0
   -1.2396   -8.6950    2.2271 C   0  0  0  0  0  0  0  0  0  0  0  0
   -1.7995   -9.6308    3.2159 C   0  0  0  0  0  0  0  0  0  0  0  0
   -2.4654   -9.1794    4.3550 C   0  0  0  0  0  0  0  0  0  0  0  0
   -2.9700  -10.0843    5.2468 C   0  0  0  0  0  0  0  0  0  0  0  0
   -2.8244  -11.4472    5.0269 C   0  0  0  0  0  0  0  0  0  0  0  0
   -2.1697  -11.9136    3.9082 C   0  0  0  0  0  0  0  0  0  0  0  0
   -1.6483  -11.0095    2.9865 C   0  0  0  0  0  0  0  0  0  0  0  0
   -0.9903  -11.4399    1.8595 N   0  0  0  0  0  0  0  0  0  0  0  0
   -0.4730  -10.5726    0.9453 C   0  0  0  0  0  0  0  0  0  0  0  0
    0.2678  -10.8653   -0.3403 C   0  0  2  0  0  0  0  0  0  0  0  0
    1.5238  -11.6413   -0.0380 C   0  0  0  0  0  0  0  0  0  0  0  0
    2.6454  -10.9828    0.4307 C   0  0  0  0  0  0  0  0  0  0  0  0
    3.7997  -11.6904    0.7099 C   0  0  0  0  0  0  0  0  0  0  0  0
    3.8351  -13.0623    0.5199 C   0  0  0  0  0  0  0  0  0  0  0  0
    2.7052  -13.7256    0.0477 C   0  0  0  0  0  0  0  0  0  0  0  0
    1.5500  -13.0108   -0.2245 C   0  0  0  0  0  0  0  0  0  0  0  0
    2.9910  -15.0565   -0.0532 O   0  0  0  0  0  0  0  0  0  0  0  0
    4.4280  -15.1441   -0.0281 C   0  0  0  0  0  0  0  0  0  0  0  0
    4.8288  -13.9776    0.7148 O   0  0  0  0  0  0  0  0  0  0  0  0
   -1.3415   -7.4884    2.3765 O   0  0  0  0  0  0  0  0  0  0  0  0
    1.0001    2.1870    0.0043 H   0  0  0  0  0  0  0  0  0  0  0  0
   -0.5497    2.1708   -0.8711 H   0  0  0  0  0  0  0  0  0  0  0  0
   -0.5327    2.1613    0.9088 H   0  0  0  0  0  0  0  0  0  0  0  0
   -0.0038   -2.4805    0.0381 H   0  0  0  0  0  0  0  0  0  0  0  0
    0.3408   -4.8467   -0.5276 H   0  0  0  0  0  0  0  0  0  0  0  0
    2.3792   -3.6806   -4.1196 H   0  0  0  0  0  0  0  0  0  0  0  0
    2.0216   -1.3176   -3.5485 H   0  0  0  0  0  0  0  0  0  0  0  0
    2.6812   -5.7061   -4.5963 H   0  0  0  0  0  0  0  0  0  0  0  0
    2.6311   -8.3862   -4.4727 H   0  0  0  0  0  0  0  0  0  0  0  0
    0.8994   -7.9135    0.2935 H   0  0  0  0  0  0  0  0  0  0  0  0
   -0.6458   -7.9341   -0.5999 H   0  0  0  0  0  0  0  0  0  0  0  0
   -2.5815   -8.1204    4.5319 H   0  0  0  0  0  0  0  0  0  0  0  0
   -3.4856   -9.7362    6.1296 H   0  0  0  0  0  0  0  0  0  0  0  0
   -3.2286  -12.1496    5.7408 H   0  0  0  0  0  0  0  0  0  0  0  0
   -2.0618  -12.9759    3.7465 H   0  0  0  0  0  0  0  0  0  0  0  0
   -0.3691  -11.4388   -1.0137 H   0  0  0  0  0  0  0  0  0  0  0  0
    2.6199   -9.9133    0.5786 H   0  0  0  0  0  0  0  0  0  0  0  0
    4.6745  -11.1734    1.0759 H   0  0  0  0  0  0  0  0  0  0  0  0
    0.6709  -13.5232   -0.5865 H   0  0  0  0  0  0  0  0  0  0  0  0
    4.7475  -16.0522    0.4831 H   0  0  0  0  0  0  0  0  0  0  0  0
    4.8315  -15.1110   -1.0401 H   0  0  0  0  0  0  0  0  0  0  0  0
   -0.8909  -12.3931    1.7099 H   0  0  0  0  0  0  0  0  0  0  0  0
  1  2  1  0  0  0  0
  1 42  1  0  0  0  0
  1 43  1  0  0  0  0
  1 44  1  0  0  0  0
  2  3  2  0  0  0  0
  2  4  2  0  0  0  0
  2  5  1  0  0  0  0
  5  6  1  0  0  0  0
  6 11  2  0  0  0  0
  6  7  1  0  0  0  0
  7  8  2  0  0  0  0
  7 45  1  0  0  0  0
  8  9  1  0  0  0  0
  8 46  1  0  0  0  0
  9 10  2  0  0  0  0
  9 12  1  0  0  0  0
 10 11  1  0  0  0  0
 10 47  1  0  0  0  0
 11 48  1  0  0  0  0
 12 16  1  0  0  0  0
 12 13  2  0  0  0  0
 13 14  1  0  0  0  0
 13 49  1  0  0  0  0
 14 15  2  0  0  0  0
 14 50  1  0  0  0  0
 15 16  1  0  0  0  0
 15 17  1  0  0  0  0
 17 18  2  0  0  0  0
 17 19  1  0  0  0  0
 19 31  1  0  0  0  0
 19 20  1  0  0  0  0
 20 21  1  0  0  0  0
 20 51  1  0  0  0  0
 20 52  1  0  0  0  0
 21 30  2  0  0  0  0
 21 22  1  0  0  0  0
 22 23  1  0  0  0  0
 22 41  2  0  0  0  0
 23 28  2  0  0  0  0
 23 24  1  0  0  0  0
 24 25  2  0  0  0  0
 24 53  1  0  0  0  0
 25 26  1  0  0  0  0
 25 54  1  0  0  0  0
 26 27  2  0  0  0  0
 26 55  1  0  0  0  0
 27 28  1  0  0  0  0
 27 56  1  0  0  0  0
 28 29  1  0  0  0  0
 29 30  1  0  0  0  0
 29 63  1  0  0  0  0
 30 31  1  0  0  0  0
 31 32  1  0  0  0  0
 31 57  1  0  0  0  0
 32 37  2  0  0  0  0
 32 33  1  0  0  0  0
 33 34  2  0  0  0  0
 33 58  1  0  0  0  0
 34 35  1  0  0  0  0
 34 59  1  0  0  0  0
 35 40  1  0  0  0  0
 35 36  2  0  0  0  0
 36 37  1  0  0  0  0
 36 38  1  0  0  0  0
 37 60  1  0  0  0  0
 38 39  1  0  0  0  0
 39 40  1  0  0  0  0
 39 61  1  0  0  0  0
 39 62  1  0  0  0  0
M  CHG  1   5  -1
M  END
$$$$
CHEMBL342159
  -OEChem-07121202283D

 63 69  0     1  0  0  0  0  0999 V2000
   -0.0225    1.8097    0.0120 C   0  0  0  0  0  0  0  0  0  0  0  0
    0.0021   -0.0041    0.0020 S   0  0  0  0  0  0  0  0  0  0  0  0
    0.8352   -0.4880    1.0465 O   0  0  0  0  0  0  0  0  0  0  0  0
   -1.3147   -0.5105   -0.1678 O   0  0  0  0  0  0  0  0  0  0  0  0
    0.7947   -0.4113   -1.3938 N   0  5  0  0  0  0  0  0  0  0  0  0
    0.9916   -1.7526   -1.7175 C   0  0  0  0  0  0  0  0  0  0  0  0
    0.5165   -2.7481   -0.8697 C   0  0  0  0  0  0  0  0  0  0  0  0
    0.7092   -4.0744   -1.1865 C   0  0  0  0  0  0  0  0  0  0  0  0
    1.3826   -4.4198   -2.3615 C   0  0  0  0  0  0  0  0  0  0  0  0
    1.8582   -3.4172   -3.2111 C   0  0  0  0  0  0  0  0  0  0  0  0
    1.6577   -2.0929   -2.8906 C   0  0  0  0  0  0  0  0  0  0  0  0
    1.5915   -5.8398   -2.7039 C   0  0  0  0  0  0  0  0  0  0  0  0
    2.2360   -6.3047   -3.8154 C   0  0  0  0  0  0  0  0  0  0  0  0
    2.2105   -7.7009   -3.7518 C   0  0  0  0  0  0  0  0  0  0  0  0
    1.5445   -8.0343   -2.5921 C   0  0  0  0  0  0  0  0  0  0  0  0
    1.1844   -6.8903   -1.9717 O   0  0  0  0  0  0  0  0  0  0  0  0
    1.2788   -9.3922   -2.1134 C   0  0  0  0  0  0  0  0  0  0  0  0
    1.6590  -10.3509   -2.7602 O   0  0  0  0  0  0  0  0  0  0  0  0
    0.6134   -9.5808   -0.9566 N   0  0  0  0  0  0  0  0  0  0  0  0
    0.0849   -8.5420   -0.0664 C   0  0  0  0  0  0  0  0  0  0  0  0
   -0.5785   -9.2368    1.0969 C   0  0  0  0  0  0  0  0  0  0  0  0
   -1.2396   -8.6950    2.2271 C   0  0  0  0  0  0  0  0  0  0  0  0
   -1.7995   -9.6308    3.2159 C   0  0  0  0  0  0  0  0  0  0  0  0
   -2.4654   -9.1794    4.3550 C   0  0  0  0  0  0  0  0  0  0  0  0
   -2.9700  -10.0843    5.2468 C   0  0  0  0  0  0  0  0  0  0  0  0
   -2.8244  -11.4472    5.0269 C   0  0  0  0  0  0  0  0  0  0  0  0
   -2.1697  -11.9136    3.9082 C   0  0  0  0  0  0  0  0  0  0  0  0
   -1.6483  -11.0095    2.9865 C   0  0  0  0  0  0  0  0  0  0  0  0
   -0.9903  -11.4399    1.8595 N   0  0  0  0  0  0  0  0  0  0  0  0
   -0.4730  -10.5726    0.9453 C   0  0  0  0  0  0  0  0  0  0  0  0
    0.2678  -10.8653   -0.3403 C   0  0  1  0  0  0  0  0  0  0  0  0
   -0.6128  -11.6582   -1.2713 C   0  0  0  0  0  0  0  0  0  0  0  0
   -1.5798  -11.0148   -2.0213 C   0  0  0  0  0  0  0  0  0  0  0  0
   -2.3896  -11.7378   -2.8770 C   0  0  0  0  0  0  0  0  0  0  0  0
   -2.2341  -13.1103   -2.9848 C   0  0  0  0  0  0  0  0  0  0  0  0
   -1.2601  -13.7584   -2.2293 C   0  0  0  0  0  0  0  0  0  0  0  0
   -0.4482  -13.0266   -1.3780 C   0  0  0  0  0  0  0  0  0  0  0  0
   -1.3063  -15.0933   -2.5108 O   0  0  0  0  0  0  0  0  0  0  0  0
   -2.5849  -15.3102   -3.1364 C   0  0  0  0  0  0  0  0  0  0  0  0
   -2.8905  -14.0390   -3.7396 O   0  0  0  0  0  0  0  0  0  0  0  0
   -1.3415   -7.4884    2.3765 O   0  0  0  0  0  0  0  0  0  0  0  0
    1.0001    2.1870    0.0043 H   0  0  0  0  0  0  0  0  0  0  0  0
   -0.5497    2.1708   -0.8711 H   0  0  0  0  0  0  0  0  0  0  0  0
   -0.5327    2.1613    0.9088 H   0  0  0  0  0  0  0  0  0  0  0  0
   -0.0038   -2.4805    0.0381 H   0  0  0  0  0  0  0  0  0  0  0  0
    0.3408   -4.8467   -0.5276 H   0  0  0  0  0  0  0  0  0  0  0  0
    2.3792   -3.6806   -4.1196 H   0  0  0  0  0  0  0  0  0  0  0  0
    2.0216   -1.3176   -3.5485 H   0  0  0  0  0  0  0  0  0  0  0  0
    2.6812   -5.7061   -4.5963 H   0  0  0  0  0  0  0  0  0  0  0  0
    2.6311   -8.3862   -4.4727 H   0  0  0  0  0  0  0  0  0  0  0  0
    0.8994   -7.9135    0.2935 H   0  0  0  0  0  0  0  0  0  0  0  0
   -0.6458   -7.9341   -0.5999 H   0  0  0  0  0  0  0  0  0  0  0  0
   -2.5815   -8.1204    4.5319 H   0  0  0  0  0  0  0  0  0  0  0  0
   -3.4856   -9.7362    6.1296 H   0  0  0  0  0  0  0  0  0  0  0  0
   -3.2286  -12.1496    5.7408 H   0  0  0  0  0  0  0  0  0  0  0  0
   -2.0618  -12.9759    3.7465 H   0  0  0  0  0  0  0  0  0  0  0  0
    1.1762  -11.4266   -0.1217 H   0  0  0  0  0  0  0  0  0  0  0  0
   -1.7029   -9.9451   -1.9380 H   0  0  0  0  0  0  0  0  0  0  0  0
   -3.1442  -11.2325   -3.4617 H   0  0  0  0  0  0  0  0  0  0  0  0
    0.3110  -13.5260   -0.7943 H   0  0  0  0  0  0  0  0  0  0  0  0
   -2.5122  -16.0875   -3.8971 H   0  0  0  0  0  0  0  0  0  0  0  0
   -3.3365  -15.5712   -2.3913 H   0  0  0  0  0  0  0  0  0  0  0  0
   -0.8909  -12.3931    1.7099 H   0  0  0  0  0  0  0  0  0  0  0  0
  1  2  1  0  0  0  0
  1 42  1  0  0  0  0
  1 43  1  0  0  0  0
  1 44  1  0  0  0  0
  2  3  2  0  0  0  0
  2  4  2  0  0  0  0
  2  5  1  0  0  0  0
  5  6  1  0  0  0  0
  6 11  2  0  0  0  0
  6  7  1  0  0  0  0
  7  8  2  0  0  0  0
  7 45  1  0  0  0  0
  8  9  1  0  0  0  0
  8 46  1  0  0  0  0
  9 10  2  0  0  0  0
  9 12  1  0  0  0  0
 10 11  1  0  0  0  0
 10 47  1  0  0  0  0
 11 48  1  0  0  0  0
 12 16  1  0  0  0  0
 12 13  2  0  0  0  0
 13 14  1  0  0  0  0
 13 49  1  0  0  0  0
 14 15  2  0  0  0  0
 14 50  1  0  0  0  0
 15 16  1  0  0  0  0
 15 17  1  0  0  0  0
 17 18  2  0  0  0  0
 17 19  1  0  0  0  0
 19 31  1  0  0  0  0
 19 20  1  0  0  0  0
 20 21  1  0  0  0  0
 20 51  1  0  0  0  0
 20 52  1  0  0  0  0
 21 30  2  0  0  0  0
 21 22  1  0  0  0  0
 22 23  1  0  0  0  0
 22 41  2  0  0  0  0
 23 28  2  0  0  0  0
 23 24  1  0  0  0  0
 24 25  2  0  0  0  0
 24 53  1  0  0  0  0
 25 26  1  0  0  0  0
 25 54  1  0  0  0  0
 26 27  2  0  0  0  0
 26 55  1  0  0  0  0
 27 28  1  0  0  0  0
 27 56  1  0  0  0  0
 28 29  1  0  0  0  0
 29 30  1  0  0  0  0
 29 63  1  0  0  0  0
 30 31  1  0  0  0  0
 31 32  1  0  0  0  0
 31 57  1  0  0  0  0
 32 37  2  0  0  0  0
 32 33  1  0  0  0  0
 33 34  2  0  0  0  0
 33 58  1  0  0  0  0
 34 35  1  0  0  0  0
 34 59  1  0  0  0  0
 35 40  1  0  0  0  0
 35 36  2  0  0  0  0
 36 37  1  0  0  0  0
 36 38  1  0  0  0  0
 37 60  1  0  0  0  0
 38 39  1  0  0  0  0
 39 40  1  0  0  0  0
 39 61  1  0  0  0  0
 39 62  1  0  0  0  0
M  CHG  1   5  -1
M  END
$$$$
CHEMBL539783
  -OEChem-07121202283D

 76 80  0     0  0  0  0  0  0999 V2000
    0.4880    1.3225    0.5104 C   0  0  0  0  0  0  0  0  0  0  0  0
    0.3702   -0.1734    0.3710 C   0  0  0  0  0  0  0  0  0  0  0  0
    0.2878   -0.7378   -0.8881 C   0  0  0  0  0  0  0  0  0  0  0  0
    0.1797   -2.1148   -1.0053 C   0  0  0  0  0  0  0  0  0  0  0  0
    0.1585   -2.8762    0.1535 C   0  0  0  0  0  0  0  0  0  0  0  0
    0.2451   -2.2415    1.3779 C   0  0  0  0  0  0  0  0  0  0  0  0
    0.3523   -0.9291    1.4513 N   0  0  0  0  0  0  0  0  0  0  0  0
    0.0870   -2.7689   -2.3599 C   0  0  0  0  0  0  0  0  0  0  0  0
    1.4325   -2.9348   -2.9151 N   0  0  0  0  0  0  0  0  0  0  0  0
    1.9424   -1.9462   -3.7291 C   0  0  0  0  0  0  0  0  0  0  0  0
    3.2045   -2.0438   -4.2833 C   0  0  0  0  0  0  0  0  0  0  0  0
    4.0161   -3.2333   -3.9928 C   0  0  0  0  0  0  0  0  0  0  0  0
    5.2991   -3.4141   -4.5087 C   0  0  0  0  0  0  0  0  0  0  0  0
    5.9868   -4.5648   -4.1801 C   0  0  0  0  0  0  0  0  0  0  0  0
    5.4578   -5.4868   -3.3950 N   0  0  0  0  0  0  0  0  0  0  0  0
    4.2460   -5.3702   -2.8767 C   0  0  0  0  0  0  0  0  0  0  0  0
    3.4753   -4.2356   -3.1560 C   0  0  0  0  0  0  0  0  0  0  0  0
    2.1298   -4.0455   -2.6077 C   0  0  0  0  0  0  0  0  0  0  0  0
    1.6417   -4.8912   -1.8802 O   0  0  0  0  0  0  0  0  0  0  0  0
    3.7526   -6.3463   -2.0778 O   0  0  0  0  0  0  0  0  0  0  0  0
    4.5951   -7.4750   -1.8366 C   0  0  0  0  0  0  0  0  0  0  0  0
    3.8726   -8.4640   -0.9197 C   0  0  0  0  0  0  0  0  0  0  0  0
    4.7611   -9.6543   -0.6653 C   0  0  0  0  0  0  0  0  0  0  0  0
    5.0507  -10.0253    0.6344 C   0  0  0  0  0  0  0  0  0  0  0  0
    5.8691  -11.1218    0.8575 C   0  0  0  0  0  0  0  0  0  0  0  0
    6.3678  -11.8073   -0.2399 C   0  0  0  0  0  0  0  0  0  0  0  0
    6.0348  -11.3778   -1.5104 C   0  0  0  0  0  0  0  0  0  0  0  0
    5.2489  -10.3332   -1.6850 N   0  0  0  0  0  0  0  0  0  0  0  0
    3.7285   -0.9704   -5.1534 C   0  0  0  0  0  0  0  0  0  0  0  0
    3.1145   -0.7008   -6.3784 C   0  0  0  0  0  0  0  0  0  0  0  0
    3.6065    0.3046   -7.1907 C   0  0  0  0  0  0  0  0  0  0  0  0
    4.7126    1.0474   -6.7882 C   0  0  0  0  0  0  0  0  0  0  0  0
    5.3263    0.7807   -5.5677 C   0  0  0  0  0  0  0  0  0  0  0  0
    4.8349   -0.2201   -4.7494 C   0  0  0  0  0  0  0  0  0  0  0  0
    6.4072    1.5079   -5.1775 O   0  0  0  0  0  0  0  0  0  0  0  0
    6.9873    1.1805   -3.9133 C   0  0  0  0  0  0  0  0  0  0  0  0
    5.1947    2.0352   -7.5889 O   0  0  0  0  0  0  0  0  0  0  0  0
    4.6544    3.3447   -7.4007 C   0  0  0  0  0  0  0  0  0  0  0  0
    3.0093    0.5674   -8.3839 O   0  0  0  0  0  0  0  0  0  0  0  0
    1.8790   -0.2338   -8.7341 C   0  0  0  0  0  0  0  0  0  0  0  0
    1.1237   -0.7599   -4.0150 C   0  0  0  0  0  0  0  0  0  0  0  0
    1.5503    0.1107   -4.7485 O   0  0  0  0  0  0  0  0  0  0  0  0
   -0.1010   -0.6369   -3.4635 O   0  0  0  0  0  0  0  0  0  0  0  0
   -0.8416    0.5422   -3.7848 C   0  0  0  0  0  0  0  0  0  0  0  0
    1.5405    1.6060    0.5069 H   0  0  0  0  0  0  0  0  0  0  0  0
   -0.0214    1.8063   -0.3231 H   0  0  0  0  0  0  0  0  0  0  0  0
    0.0300    1.6373    1.4481 H   0  0  0  0  0  0  0  0  0  0  0  0
    0.3070   -0.1138   -1.7694 H   0  0  0  0  0  0  0  0  0  0  0  0
    0.0749   -3.9516    0.0998 H   0  0  0  0  0  0  0  0  0  0  0  0
    0.2292   -2.8274    2.2850 H   0  0  0  0  0  0  0  0  0  0  0  0
   -0.3879   -3.7449   -2.2603 H   0  0  0  0  0  0  0  0  0  0  0  0
   -0.5062   -2.1424   -3.0260 H   0  0  0  0  0  0  0  0  0  0  0  0
    5.7449   -2.6698   -5.1519 H   0  0  0  0  0  0  0  0  0  0  0  0
    6.9809   -4.7154   -4.5743 H   0  0  0  0  0  0  0  0  0  0  0  0
    4.8299   -7.9620   -2.7831 H   0  0  0  0  0  0  0  0  0  0  0  0
    5.5176   -7.1444   -1.3594 H   0  0  0  0  0  0  0  0  0  0  0  0
    3.6378   -7.9770    0.0268 H   0  0  0  0  0  0  0  0  0  0  0  0
    2.9501   -8.7946   -1.3969 H   0  0  0  0  0  0  0  0  0  0  0  0
    4.6449   -9.4677    1.4656 H   0  0  0  0  0  0  0  0  0  0  0  0
    6.1127  -11.4345    1.8622 H   0  0  0  0  0  0  0  0  0  0  0  0
    7.0086  -12.6659   -0.1034 H   0  0  0  0  0  0  0  0  0  0  0  0
    6.4191  -11.9062   -2.3703 H   0  0  0  0  0  0  0  0  0  0  0  0
    2.2564   -1.2771   -6.6913 H   0  0  0  0  0  0  0  0  0  0  0  0
    5.3087   -0.4237   -3.8005 H   0  0  0  0  0  0  0  0  0  0  0  0
    7.3210    0.1429   -3.9245 H   0  0  0  0  0  0  0  0  0  0  0  0
    7.8390    1.8340   -3.7241 H   0  0  0  0  0  0  0  0  0  0  0  0
    6.2446    1.3148   -3.1269 H   0  0  0  0  0  0  0  0  0  0  0  0
    5.1239    4.0355   -8.1009 H   0  0  0  0  0  0  0  0  0  0  0  0
    3.5791    3.3229   -7.5777 H   0  0  0  0  0  0  0  0  0  0  0  0
    4.8480    3.6744   -6.3800 H   0  0  0  0  0  0  0  0  0  0  0  0
    2.1766   -1.2815   -8.7799 H   0  0  0  0  0  0  0  0  0  0  0  0
    1.0991   -0.1101   -7.9827 H   0  0  0  0  0  0  0  0  0  0  0  0
    1.4993    0.0789   -9.7068 H   0  0  0  0  0  0  0  0  0  0  0  0
   -0.2846    1.4210   -3.4601 H   0  0  0  0  0  0  0  0  0  0  0  0
   -0.9995    0.5898   -4.8623 H   0  0  0  0  0  0  0  0  0  0  0  0
   -1.8059    0.5152   -3.2772 H   0  0  0  0  0  0  0  0  0  0  0  0
  1  2  1  0  0  0  0
  1 45  1  0  0  0  0
  1 46  1  0  0  0  0
  1 47  1  0  0  0  0
  2  7  2  0  0  0  0
  2  3  1  0  0  0  0
  3  4  2  0  0  0  0
  3 48  1  0  0  0  0
  4  5  1  0  0  0  0
  4  8  1  0  0  0  0
  5  6  2  0  0  0  0
  5 49  1  0  0  0  0
  6  7  1  0  0  0  0
  6 50  1  0  0  0  0
  8  9  1  0  0  0  0
  8 51  1  0  0  0  0
  8 52  1  0  0  0  0
  9 18  1  0  0  0  0
  9 10  1  0  0  0  0
 10 11  2  0  0  0  0
 10 41  1  0  0  0  0
 11 12  1  0  0  0  0
 11 29  1  0  0  0  0
 12 17  2  0  0  0  0
 12 13  1  0  0  0  0
 13 14  2  0  0  0  0
 13 53  1  0  0  0  0
 14 15  1  0  0  0  0
 14 54  1  0  0  0  0
 15 16  2  0  0  0  0
 16 17  1  0  0  0  0
 16 20  1  0  0  0  0
 17 18  1  0  0  0  0
 18 19  2  0  0  0  0
 20 21  1  0  0  0  0
 21 22  1  0  0  0  0
 21 55  1  0  0  0  0
 21 56  1  0  0  0  0
 22 23  1  0  0  0  0
 22 57  1  0  0  0  0
 22 58  1  0  0  0  0
 23 28  2  0  0  0  0
 23 24  1  0  0  0  0
 24 25  2  0  0  0  0
 24 59  1  0  0  0  0
 25 26  1  0  0  0  0
 25 60  1  0  0  0  0
 26 27  2  0  0  0  0
 26 61  1  0  0  0  0
 27 28  1  0  0  0  0
 27 62  1  0  0  0  0
 29 34  2  0  0  0  0
 29 30  1  0  0  0  0
 30 31  2  0  0  0  0
 30 63  1  0  0  0  0
 31 32  1  0  0  0  0
 31 39  1  0  0  0  0
 32 33  2  0  0  0  0
 32 37  1  0  0  0  0
 33 34  1  0  0  0  0
 33 35  1  0  0  0  0
 34 64  1  0  0  0  0
 35 36  1  0  0  0  0
 36 65  1  0  0  0  0
 36 66  1  0  0  0  0
 36 67  1  0  0  0  0
 37 38  1  0  0  0  0
 38 68  1  0  0  0  0
 38 69  1  0  0  0  0
 38 70  1  0  0  0  0
 39 40  1  0  0  0  0
 40 71  1  0  0  0  0
 40 72  1  0  0  0  0
 40 73  1  0  0  0  0
 41 42  2  0  0  0  0
 41 43  1  0  0  0  0
 43 44  1  0  0  0  0
 44 74  1  0  0  0  0
 44 75  1  0  0  0  0
 44 76  1  0  0  0  0
M  END
$$$$
CHEMBL539783
  -OEChem-07121202283D

 77 81  0     0  0  0  0  0  0999 V2000
    0.4880    1.3225    0.5104 C   0  0  0  0  0  0  0  0  0  0  0  0
    0.3702   -0.1734    0.3710 C   0  0  0  0  0  0  0  0  0  0  0  0
    0.2878   -0.7378   -0.8881 C   0  0  0  0  0  0  0  0  0  0  0  0
    0.1797   -2.1148   -1.0053 C   0  0  0  0  0  0  0  0  0  0  0  0
    0.1585   -2.8762    0.1535 C   0  0  0  0  0  0  0  0  0  0  0  0
    0.2451   -2.2415    1.3779 C   0  0  0  0  0  0  0  0  0  0  0  0
    0.3523   -0.9291    1.4513 N   0  3  0  0  0  0  0  0  0  0  0  0
    0.0870   -2.7689   -2.3599 C   0  0  0  0  0  0  0  0  0  0  0  0
    1.4325   -2.9348   -2.9151 N   0  0  0  0  0  0  0  0  0  0  0  0
    1.9424   -1.9462   -3.7291 C   0  0  0  0  0  0  0  0  0  0  0  0
    3.2045   -2.0438   -4.2833 C   0  0  0  0  0  0  0  0  0  0  0  0
    4.0161   -3.2333   -3.9928 C   0  0  0  0  0  0  0  0  0  0  0  0
    5.2991   -3.4141   -4.5087 C   0  0  0  0  0  0  0  0  0  0  0  0
    5.9868   -4.5648   -4.1801 C   0  0  0  0  0  0  0  0  0  0  0  0
    5.4578   -5.4868   -3.3950 N   0  0  0  0  0  0  0  0  0  0  0  0
    4.2460   -5.3702   -2.8767 C   0  0  0  0  0  0  0  0  0  0  0  0
    3.4753   -4.2356   -3.1560 C   0  0  0  0  0  0  0  0  0  0  0  0
    2.1298   -4.0455   -2.6077 C   0  0  0  0  0  0  0  0  0  0  0  0
    1.6417   -4.8912   -1.8802 O   0  0  0  0  0  0  0  0  0  0  0  0
    3.7526   -6.3463   -2.0778 O   0  0  0  0  0  0  0  0  0  0  0  0
    4.5951   -7.4750   -1.8366 C   0  0  0  0  0  0  0  0  0  0  0  0
    3.8726   -8.4640   -0.9197 C   0  0  0  0  0  0  0  0  0  0  0  0
    4.7611   -9.6543   -0.6653 C   0  0  0  0  0  0  0  0  0  0  0  0
    5.0507  -10.0253    0.6344 C   0  0  0  0  0  0  0  0  0  0  0  0
    5.8691  -11.1218    0.8575 C   0  0  0  0  0  0  0  0  0  0  0  0
    6.3678  -11.8073   -0.2399 C   0  0  0  0  0  0  0  0  0  0  0  0
    6.0348  -11.3778   -1.5104 C   0  0  0  0  0  0  0  0  0  0  0  0
    5.2489  -10.3332   -1.6850 N   0  0  0  0  0  0  0  0  0  0  0  0
    3.7285   -0.9704   -5.1534 C   0  0  0  0  0  0  0  0  0  0  0  0
    3.1145   -0.7008   -6.3784 C   0  0  0  0  0  0  0  0  0  0  0  0
    3.6065    0.3046   -7.1907 C   0  0  0  0  0  0  0  0  0  0  0  0
    4.7126    1.0474   -6.7882 C   0  0  0  0  0  0  0  0  0  0  0  0
    5.3263    0.7807   -5.5677 C   0  0  0  0  0  0  0  0  0  0  0  0
    4.8349   -0.2201   -4.7494 C   0  0  0  0  0  0  0  0  0  0  0  0
    6.4072    1.5079   -5.1775 O   0  0  0  0  0  0  0  0  0  0  0  0
    6.9873    1.1805   -3.9133 C   0  0  0  0  0  0  0  0  0  0  0  0
    5.1947    2.0352   -7.5889 O   0  0  0  0  0  0  0  0  0  0  0  0
    4.6544    3.3447   -7.4007 C   0  0  0  0  0  0  0  0  0  0  0  0
    3.0093    0.5674   -8.3839 O   0  0  0  0  0  0  0  0  0  0  0  0
    1.8790   -0.2338   -8.7341 C   0  0  0  0  0  0  0  0  0  0  0  0
    1.1237   -0.7599   -4.0150 C   0  0  0  0  0  0  0  0  0  0  0  0
    1.5503    0.1107   -4.7485 O   0  0  0  0  0  0  0  0  0  0  0  0
   -0.1010   -0.6369   -3.4635 O   0  0  0  0  0  0  0  0  0  0  0  0
   -0.8416    0.5422   -3.7848 C   0  0  0  0  0  0  0  0  0  0  0  0
    1.5405    1.6060    0.5069 H   0  0  0  0  0  0  0  0  0  0  0  0
   -0.0214    1.8063   -0.3231 H   0  0  0  0  0  0  0  0  0  0  0  0
    0.0300    1.6373    1.4481 H   0  0  0  0  0  0  0  0  0  0  0  0
    0.3070   -0.1138   -1.7694 H   0  0  0  0  0  0  0  0  0  0  0  0
    0.0749   -3.9516    0.0998 H   0  0  0  0  0  0  0  0  0  0  0  0
    0.2292   -2.8274    2.2850 H   0  0  0  0  0  0  0  0  0  0  0  0
   -0.3879   -3.7449   -2.2603 H   0  0  0  0  0  0  0  0  0  0  0  0
   -0.5062   -2.1424   -3.0260 H   0  0  0  0  0  0  0  0  0  0  0  0
    5.7449   -2.6698   -5.1519 H   0  0  0  0  0  0  0  0  0  0  0  0
    6.9809   -4.7154   -4.5743 H   0  0  0  0  0  0  0  0  0  0  0  0
    4.8299   -7.9620   -2.7831 H   0  0  0  0  0  0  0  0  0  0  0  0
    5.5176   -7.1444   -1.3594 H   0  0  0  0  0  0  0  0  0  0  0  0
    3.6378   -7.9770    0.0268 H   0  0  0  0  0  0  0  0  0  0  0  0
    2.9501   -8.7946   -1.3969 H   0  0  0  0  0  0  0  0  0  0  0  0
    4.6449   -9.4677    1.4656 H   0  0  0  0  0  0  0  0  0  0  0  0
    6.1127  -11.4345    1.8622 H   0  0  0  0  0  0  0  0  0  0  0  0
    7.0086  -12.6659   -0.1034 H   0  0  0  0  0  0  0  0  0  0  0  0
    6.4191  -11.9062   -2.3703 H   0  0  0  0  0  0  0  0  0  0  0  0
    2.2564   -1.2771   -6.6913 H   0  0  0  0  0  0  0  0  0  0  0  0
    5.3087   -0.4237   -3.8005 H   0  0  0  0  0  0  0  0  0  0  0  0
    7.8390    1.8340   -3.7241 H   0  0  0  0  0  0  0  0  0  0  0  0
    6.2446    1.3148   -3.1269 H   0  0  0  0  0  0  0  0  0  0  0  0
    7.3210    0.1429   -3.9245 H   0  0  0  0  0  0  0  0  0  0  0  0
    5.1239    4.0355   -8.1009 H   0  0  0  0  0  0  0  0  0  0  0  0
    3.5791    3.3229   -7.5777 H   0  0  0  0  0  0  0  0  0  0  0  0
    4.8480    3.6744   -6.3800 H   0  0  0  0  0  0  0  0  0  0  0  0
    2.1766   -1.2815   -8.7799 H   0  0  0  0  0  0  0  0  0  0  0  0
    1.0991   -0.1101   -7.9827 H   0  0  0  0  0  0  0  0  0  0  0  0
    1.4993    0.0789   -9.7068 H   0  0  0  0  0  0  0  0  0  0  0  0
   -0.2846    1.4210   -3.4601 H   0  0  0  0  0  0  0  0  0  0  0  0
   -0.9995    0.5898   -4.8623 H   0  0  0  0  0  0  0  0  0  0  0  0
   -1.8059    0.5152   -3.2772 H   0  0  0  0  0  0  0  0  0  0  0  0
    0.4156   -0.5084    2.3231 H   0  0  0  0  0  0  0  0  0  0  0  0
  1  2  1  0  0  0  0
  1 45  1  0  0  0  0
  1 46  1  0  0  0  0
  1 47  1  0  0  0  0
  2  7  2  0  0  0  0
  2  3  1  0  0  0  0
  3  4  2  0  0  0  0
  3 48  1  0  0  0  0
  4  5  1  0  0  0  0
  4  8  1  0  0  0  0
  5  6  2  0  0  0  0
  5 49  1  0  0  0  0
  6  7  1  0  0  0  0
  6 50  1  0  0  0  0
  7 77  1  0  0  0  0
  8  9  1  0  0  0  0
  8 51  1  0  0  0  0
  8 52  1  0  0  0  0
  9 18  1  0  0  0  0
  9 10  1  0  0  0  0
 10 11  2  0  0  0  0
 10 41  1  0  0  0  0
 11 12  1  0  0  0  0
 11 29  1  0  0  0  0
 12 17  2  0  0  0  0
 12 13  1  0  0  0  0
 13 14  2  0  0  0  0
 13 53  1  0  0  0  0
 14 15  1  0  0  0  0
 14 54  1  0  0  0  0
 15 16  2  0  0  0  0
 16 17  1  0  0  0  0
 16 20  1  0  0  0  0
 17 18  1  0  0  0  0
 18 19  2  0  0  0  0
 20 21  1  0  0  0  0
 21 22  1  0  0  0  0
 21 55  1  0  0  0  0
 21 56  1  0  0  0  0
 22 23  1  0  0  0  0
 22 57  1  0  0  0  0
 22 58  1  0  0  0  0
 23 28  2  0  0  0  0
 23 24  1  0  0  0  0
 24 25  2  0  0  0  0
 24 59  1  0  0  0  0
 25 26  1  0  0  0  0
 25 60  1  0  0  0  0
 26 27  2  0  0  0  0
 26 61  1  0  0  0  0
 27 28  1  0  0  0  0
 27 62  1  0  0  0  0
 29 34  2  0  0  0  0
 29 30  1  0  0  0  0
 30 31  2  0  0  0  0
 30 63  1  0  0  0  0
 31 32  1  0  0  0  0
 31 39  1  0  0  0  0
 32 33  2  0  0  0  0
 32 37  1  0  0  0  0
 33 34  1  0  0  0  0
 33 35  1  0  0  0  0
 34 64  1  0  0  0  0
 35 36  1  0  0  0  0
 36 65  1  0  0  0  0
 36 66  1  0  0  0  0
 36 67  1  0  0  0  0
 37 38  1  0  0  0  0
 38 68  1  0  0  0  0
 38 69  1  0  0  0  0
 38 70  1  0  0  0  0
 39 40  1  0  0  0  0
 40 71  1  0  0  0  0
 40 72  1  0  0  0  0
 40 73  1  0  0  0  0
 41 42  2  0  0  0  0
 41 43  1  0  0  0  0
 43 44  1  0  0  0  0
 44 74  1  0  0  0  0
 44 75  1  0  0  0  0
 44 76  1  0  0  0  0
M  CHG  1   7   1
M  END
$$$$
CHEMBL183726
  -OEChem-07121202283D

 57 60  0     0  0  0  0  0  0999 V2000
   -0.0187    1.5258    0.0104 C   0  0  0  0  0  0  0  0  0  0  0  0
    0.0021   -0.0041    0.0020 C   0  0  0  0  0  0  0  0  0  0  0  0
    0.6709   -0.4649   -1.1737 O   0  0  0  0  0  0  0  0  0  0  0  0
    0.7760   -1.8006   -1.3350 C   0  0  0  0  0  0  0  0  0  0  0  0
    0.3116   -2.5527   -0.4989 O   0  0  0  0  0  0  0  0  0  0  0  0
    1.4275   -2.3274   -2.4788 C   0  0  0  0  0  0  0  0  0  0  0  0
    1.6428   -3.6493   -2.8471 C   0  0  0  0  0  0  0  0  0  0  0  0
    2.2816   -3.8420   -3.9727 N   0  0  0  0  0  0  0  0  0  0  0  0
    2.6963   -2.8292   -4.7135 C   0  0  0  0  0  0  0  0  0  0  0  0
    2.1922   -1.4758   -3.8495 S   0  0  0  0  0  0  0  0  0  0  0  0
    3.3768   -2.8714   -5.9139 N   0  0  0  0  0  0  0  0  0  0  0  0
    3.7324   -1.6914   -6.5518 C   0  0  0  0  0  0  0  0  0  0  0  0
    3.4118   -0.5352   -5.9852 N   0  0  0  0  0  0  0  0  0  0  0  0
    3.7303    0.6208   -6.5561 C   0  0  0  0  0  0  0  0  0  0  0  0
    4.4190    0.5981   -7.7817 C   0  0  0  0  0  0  0  0  0  0  0  0
    4.7370   -0.6493   -8.3436 C   0  0  0  0  0  0  0  0  0  0  0  0
    4.3839   -1.7581   -7.7010 N   0  0  0  0  0  0  0  0  0  0  0  0
    5.3955   -0.3794   -9.5166 N   0  0  0  0  0  0  0  0  0  0  0  0
    5.4645    0.9772   -9.6438 C   0  0  0  0  0  0  0  0  0  0  0  0
    4.8911    1.5484   -8.6252 N   0  0  0  0  0  0  0  0  0  0  0  0
    5.9275   -1.3667  -10.4591 C   0  0  0  0  0  0  0  0  0  0  0  0
    4.8352   -1.7996  -11.4029 C   0  0  0  0  0  0  0  0  0  0  0  0
    4.0294   -2.8755  -11.0804 C   0  0  0  0  0  0  0  0  0  0  0  0
    3.0275   -3.2726  -11.9461 C   0  0  0  0  0  0  0  0  0  0  0  0
    2.8311   -2.5935  -13.1340 C   0  0  0  0  0  0  0  0  0  0  0  0
    3.6364   -1.5170  -13.4560 C   0  0  0  0  0  0  0  0  0  0  0  0
    4.6355   -1.1173  -12.5884 C   0  0  0  0  0  0  0  0  0  0  0  0
    1.5548   -3.1004  -14.2379 S   0  0  0  0  0  0  0  0  0  0  0  0
    1.9923   -2.6706  -15.5198 O   0  0  0  0  0  0  0  0  0  0  0  0
    1.3647   -4.4814  -13.9628 O   0  0  0  0  0  0  0  0  0  0  0  0
    0.0937   -2.1546  -13.7270 C   0  0  0  0  0  0  0  0  0  0  0  0
    3.3915    1.8216   -5.9580 N   0  0  0  0  0  0  0  0  0  0  0  0
    2.6735    1.8269   -4.6810 C   0  0  0  0  0  0  0  0  0  0  0  0
    1.1671   -4.7987   -1.9965 C   0  0  0  0  0  0  0  0  0  0  0  0
    1.0039    1.9031    0.0027 H   0  0  0  0  0  0  0  0  0  0  0  0
   -0.5459    1.8868   -0.8726 H   0  0  0  0  0  0  0  0  0  0  0  0
   -0.5289    1.8773    0.9072 H   0  0  0  0  0  0  0  0  0  0  0  0
    0.5293   -0.3651    0.8851 H   0  0  0  0  0  0  0  0  0  0  0  0
   -1.0205   -0.3814    0.0098 H   0  0  0  0  0  0  0  0  0  0  0  0
    3.6063   -3.7259   -6.3115 H   0  0  0  0  0  0  0  0  0  0  0  0
    5.9273    1.4997  -10.4680 H   0  0  0  0  0  0  0  0  0  0  0  0
    6.7443   -0.9226  -11.0280 H   0  0  0  0  0  0  0  0  0  0  0  0
    6.2965   -2.2323   -9.9089 H   0  0  0  0  0  0  0  0  0  0  0  0
    4.1828   -3.4060  -10.1523 H   0  0  0  0  0  0  0  0  0  0  0  0
    2.3984   -4.1136  -11.6944 H   0  0  0  0  0  0  0  0  0  0  0  0
    3.4832   -0.9867  -14.3843 H   0  0  0  0  0  0  0  0  0  0  0  0
    5.2622   -0.2739  -12.8383 H   0  0  0  0  0  0  0  0  0  0  0  0
    0.3023   -1.0883  -13.8142 H   0  0  0  0  0  0  0  0  0  0  0  0
   -0.7491   -2.4135  -14.3678 H   0  0  0  0  0  0  0  0  0  0  0  0
   -0.1501   -2.3936  -12.6918 H   0  0  0  0  0  0  0  0  0  0  0  0
    3.6293    2.6599   -6.3841 H   0  0  0  0  0  0  0  0  0  0  0  0
    2.4955    2.8559   -4.3685 H   0  0  0  0  0  0  0  0  0  0  0  0
    1.7195    1.3127   -4.7984 H   0  0  0  0  0  0  0  0  0  0  0  0
    3.2711    1.3160   -3.9260 H   0  0  0  0  0  0  0  0  0  0  0  0
    0.1581   -5.0804   -2.2978 H   0  0  0  0  0  0  0  0  0  0  0  0
    1.8362   -5.6491   -2.1278 H   0  0  0  0  0  0  0  0  0  0  0  0
    1.1629   -4.4981   -0.9488 H   0  0  0  0  0  0  0  0  0  0  0  0
  1  2  1  0  0  0  0
  1 35  1  0  0  0  0
  1 36  1  0  0  0  0
  1 37  1  0  0  0  0
  2  3  1  0  0  0  0
  2 38  1  0  0  0  0
  2 39  1  0  0  0  0
  3  4  1  0  0  0  0
  4  5  2  0  0  0  0
  4  6  1  0  0  0  0
  6 10  1  0  0  0  0
  6  7  2  0  0  0  0
  7  8  1  0  0  0  0
  7 34  1  0  0  0  0
  8  9  2  0  0  0  0
  9 10  1  0  0  0  0
  9 11  1  0  0  0  0
 11 12  1  0  0  0  0
 11 40  1  0  0  0  0
 12 17  2  0  0  0  0
 12 13  1  0  0  0  0
 13 14  2  0  0  0  0
 14 15  1  0  0  0  0
 14 32  1  0  0  0  0
 15 20  1  0  0  0  0
 15 16  2  0  0  0  0
 16 17  1  0  0  0  0
 16 18  1  0  0  0  0
 18 19  1  0  0  0  0
 18 21  1  0  0  0  0
 19 20  2  0  0  0  0
 19 41  1  0  0  0  0
 21 22  1  0  0  0  0
 21 42  1  0  0  0  0
 21 43  1  0  0  0  0
 22 27  2  0  0  0  0
 22 23  1  0  0  0  0
 23 24  2  0  0  0  0
 23 44  1  0  0  0  0
 24 25  1  0  0  0  0
 24 45  1  0  0  0  0
 25 26  2  0  0  0  0
 25 28  1  0  0  0  0
 26 27  1  0  0  0  0
 26 46  1  0  0  0  0
 27 47  1  0  0  0  0
 28 29  2  0  0  0  0
 28 30  2  0  0  0  0
 28 31  1  0  0  0  0
 31 48  1  0  0  0  0
 31 49  1  0  0  0  0
 31 50  1  0  0  0  0
 32 33  1  0  0  0  0
 32 51  1  0  0  0  0
 33 52  1  0  0  0  0
 33 53  1  0  0  0  0
 33 54  1  0  0  0  0
 34 55  1  0  0  0  0
 34 56  1  0  0  0  0
 34 57  1  0  0  0  0
M  END
$$$$
CHEMBL86785
  -OEChem-07121202283D

 70 73  0     0  0  0  0  0  0999 V2000
    0.8826    1.3234   -0.3009 C   0  0  0  0  0  0  0  0  0  0  0  0
    0.7834   -0.2033   -0.3183 C   0  0  0  0  0  0  0  0  0  0  0  0
    1.6726   -0.7847    0.7828 C   0  0  0  0  0  0  0  0  0  0  0  0
   -0.6679   -0.6229   -0.0764 C   0  0  0  0  0  0  0  0  0  0  0  0
   -0.7848   -2.0770   -0.2113 N   0  0  0  0  0  0  0  0  0  0  0  0
   -1.0664   -2.6370   -1.4479 C   0  0  0  0  0  0  0  0  0  0  0  0
   -1.1717   -4.0208   -1.5484 C   0  0  0  0  0  0  0  0  0  0  0  0
   -0.9894   -4.8094   -0.3937 C   0  0  0  0  0  0  0  0  0  0  0  0
   -1.0762   -6.0229   -0.4566 O   0  0  0  0  0  0  0  0  0  0  0  0
   -0.7173   -4.2052    0.7814 N   0  0  0  0  0  0  0  0  0  0  0  0
   -0.6132   -2.8677    0.8646 C   0  0  0  0  0  0  0  0  0  0  0  0
   -0.3618   -2.3587    1.9399 O   0  0  0  0  0  0  0  0  0  0  0  0
   -0.5271   -5.0196    1.9842 C   0  0  0  0  0  0  0  0  0  0  0  0
   -1.4539   -4.2970   -2.8733 N   0  0  0  0  0  0  0  0  0  0  0  0
   -1.5867   -5.1741   -3.2657 H   0  0  0  0  0  0  0  0  0  0  0  0
   -1.5100   -3.1003   -3.5211 C   0  0  0  0  0  0  0  0  0  0  0  0
   -1.2780   -2.1278   -2.6608 N   0  0  0  0  0  0  0  0  0  0  0  0
   -1.7866   -2.9199   -4.9601 C   0  0  0  0  0  0  0  0  0  0  0  0
   -2.0233   -4.0296   -5.7739 C   0  0  0  0  0  0  0  0  0  0  0  0
   -2.2814   -3.8546   -7.1168 C   0  0  0  0  0  0  0  0  0  0  0  0
   -2.3067   -2.5823   -7.6631 C   0  0  0  0  0  0  0  0  0  0  0  0
   -2.0737   -1.4764   -6.8688 C   0  0  0  0  0  0  0  0  0  0  0  0
   -1.8188   -1.6342   -5.5155 C   0  0  0  0  0  0  0  0  0  0  0  0
   -1.5957   -0.5478   -4.7327 O   0  0  0  0  0  0  0  0  0  0  0  0
   -1.5199    0.7196   -5.3882 C   0  0  0  0  0  0  0  0  0  0  0  0
   -2.9300    1.2852   -5.5694 C   0  0  0  0  0  0  0  0  0  0  0  0
   -0.6888    1.6839   -4.5395 C   0  0  0  0  0  0  0  0  0  0  0  0
   -2.5799   -5.2558   -8.1426 S   0  0  0  0  0  0  0  0  0  0  0  0
   -2.2576   -4.8636   -9.4698 O   0  0  0  0  0  0  0  0  0  0  0  0
   -1.9620   -6.3651   -7.5047 O   0  0  0  0  0  0  0  0  0  0  0  0
   -4.2106   -5.5430   -8.1168 N   0  0  0  0  0  0  0  0  0  0  0  0
   -4.8050   -6.4302   -7.1054 C   0  0  0  0  0  0  0  0  0  0  0  0
   -5.9716   -5.6943   -6.4377 C   0  0  0  0  0  0  0  0  0  0  0  0
   -6.9017   -5.2187   -7.4704 N   0  0  0  0  0  0  0  0  0  0  0  0
   -6.2578   -4.2415   -8.3583 C   0  0  0  0  0  0  0  0  0  0  0  0
   -5.1038   -4.9130   -9.1010 C   0  0  0  0  0  0  0  0  0  0  0  0
   -8.1182   -4.6594   -6.8660 C   0  0  0  0  0  0  0  0  0  0  0  0
    1.9166    1.6223   -0.4732 H   0  0  0  0  0  0  0  0  0  0  0  0
    0.2492    1.7376   -1.0853 H   0  0  0  0  0  0  0  0  0  0  0  0
    0.5528    1.6979    0.6681 H   0  0  0  0  0  0  0  0  0  0  0  0
    1.1133   -0.5779   -1.2873 H   0  0  0  0  0  0  0  0  0  0  0  0
    2.7066   -0.4858    0.6105 H   0  0  0  0  0  0  0  0  0  0  0  0
    1.3428   -0.4102    1.7518 H   0  0  0  0  0  0  0  0  0  0  0  0
    1.6019   -1.8724    0.7704 H   0  0  0  0  0  0  0  0  0  0  0  0
   -0.9695   -0.3257    0.9280 H   0  0  0  0  0  0  0  0  0  0  0  0
   -1.3133   -0.1371   -0.8083 H   0  0  0  0  0  0  0  0  0  0  0  0
   -0.6424   -6.0736    1.7314 H   0  0  0  0  0  0  0  0  0  0  0  0
    0.4726   -4.8492    2.3840 H   0  0  0  0  0  0  0  0  0  0  0  0
   -1.2697   -4.7420    2.7322 H   0  0  0  0  0  0  0  0  0  0  0  0
   -2.0038   -5.0236   -5.3520 H   0  0  0  0  0  0  0  0  0  0  0  0
   -2.5093   -2.4540   -8.7161 H   0  0  0  0  0  0  0  0  0  0  0  0
   -2.0943   -0.4873   -7.3020 H   0  0  0  0  0  0  0  0  0  0  0  0
   -1.0497    0.5966   -6.3639 H   0  0  0  0  0  0  0  0  0  0  0  0
   -3.5221    0.5982   -6.1741 H   0  0  0  0  0  0  0  0  0  0  0  0
   -3.4002    1.4083   -4.5938 H   0  0  0  0  0  0  0  0  0  0  0  0
   -2.8722    2.2520   -6.0695 H   0  0  0  0  0  0  0  0  0  0  0  0
    0.3157    1.2810   -4.4105 H   0  0  0  0  0  0  0  0  0  0  0  0
   -0.6310    2.6507   -5.0396 H   0  0  0  0  0  0  0  0  0  0  0  0
   -1.1591    1.8070   -3.5639 H   0  0  0  0  0  0  0  0  0  0  0  0
   -5.1710   -7.3382   -7.5845 H   0  0  0  0  0  0  0  0  0  0  0  0
   -4.0556   -6.6848   -6.3559 H   0  0  0  0  0  0  0  0  0  0  0  0
   -6.4928   -6.3745   -5.7641 H   0  0  0  0  0  0  0  0  0  0  0  0
   -5.5896   -4.8440   -5.8727 H   0  0  0  0  0  0  0  0  0  0  0  0
   -6.9867   -3.8680   -9.0776 H   0  0  0  0  0  0  0  0  0  0  0  0
   -5.8719   -3.4114   -7.7666 H   0  0  0  0  0  0  0  0  0  0  0  0
   -4.5518   -4.1650   -9.6702 H   0  0  0  0  0  0  0  0  0  0  0  0
   -5.4991   -5.6724   -9.7756 H   0  0  0  0  0  0  0  0  0  0  0  0
   -7.8517   -3.8208   -6.2227 H   0  0  0  0  0  0  0  0  0  0  0  0
   -8.7894   -4.3148   -7.6527 H   0  0  0  0  0  0  0  0  0  0  0  0
   -8.6161   -5.4275   -6.2741 H   0  0  0  0  0  0  0  0  0  0  0  0
  1  2  1  0  0  0  0
  1 38  1  0  0  0  0
  1 39  1  0  0  0  0
  1 40  1  0  0  0  0
  2  3  1  0  0  0  0
  2  4  1  0  0  0  0
  2 41  1  0  0  0  0
  3 42  1  0  0  0  0
  3 43  1  0  0  0  0
  3 44  1  0  0  0  0
  4  5  1  0  0  0  0
  4 45  1  0  0  0  0
  4 46  1  0  0  0  0
  5 11  1  0  0  0  0
  5  6  1  0  0  0  0
  6 17  1  0  0  0  0
  6  7  2  0  0  0  0
  7  8  1  0  0  0  0
  7 14  1  0  0  0  0
  8  9  2  0  0  0  0
  8 10  1  0  0  0  0
 10 11  1  0  0  0  0
 10 13  1  0  0  0  0
 11 12  2  0  0  0  0
 13 47  1  0  0  0  0
 13 48  1  0  0  0  0
 13 49  1  0  0  0  0
 14 15  1  0  0  0  0
 14 16  1  0  0  0  0
 16 17  2  0  0  0  0
 16 18  1  0  0  0  0
 18 23  2  0  0  0  0
 18 19  1  0  0  0  0
 19 20  2  0  0  0  0
 19 50  1  0  0  0  0
 20 21  1  0  0  0  0
 20 28  1  0  0  0  0
 21 22  2  0  0  0  0
 21 51  1  0  0  0  0
 22 23  1  0  0  0  0
 22 52  1  0  0  0  0
 23 24  1  0  0  0  0
 24 25  1  0  0  0  0
 25 26  1  0  0  0  0
 25 27  1  0  0  0  0
 25 53  1  0  0  0  0
 26 54  1  0  0  0  0
 26 55  1  0  0  0  0
 26 56  1  0  0  0  0
 27 57  1  0  0  0  0
 27 58  1  0  0  0  0
 27 59  1  0  0  0  0
 28 29  2  0  0  0  0
 28 30  2  0  0  0  0
 28 31  1  0  0  0  0
 31 36  1  0  0  0  0
 31 32  1  0  0  0  0
 32 33  1  0  0  0  0
 32 60  1  0  0  0  0
 32 61  1  0  0  0  0
 33 34  1  0  0  0  0
 33 62  1  0  0  0  0
 33 63  1  0  0  0  0
 34 35  1  0  0  0  0
 34 37  1  0  0  0  0
 35 36  1  0  0  0  0
 35 64  1  0  0  0  0
 35 65  1  0  0  0  0
 36 66  1  0  0  0  0
 36 67  1  0  0  0  0
 37 68  1  0  0  0  0
 37 69  1  0  0  0  0
 37 70  1  0  0  0  0
M  END
$$$$
CHEMBL86785
  -OEChem-07121202283D

 71 74  0     0  0  0  0  0  0999 V2000
    0.0688    2.1479    0.3274 C   0  0  0  0  0  0  0  0  0  0  0  0
    0.0431    0.6394    0.5816 C   0  0  0  0  0  0  0  0  0  0  0  0
   -1.4057    0.1733    0.7385 C   0  0  0  0  0  0  0  0  0  0  0  0
    0.6878   -0.0880   -0.6000 C   0  0  0  0  0  0  0  0  0  0  0  0
    2.1068    0.2679   -0.6772 N   0  0  0  0  0  0  0  0  0  0  0  0
    2.5057    1.3643   -1.4262 C   0  0  0  0  0  0  0  0  0  0  0  0
    3.8595    1.6806   -1.4823 C   0  0  0  0  0  0  0  0  0  0  0  0
    4.7821    0.8796   -0.7783 C   0  0  0  0  0  0  0  0  0  0  0  0
    5.9724    1.1368   -0.8119 O   0  0  0  0  0  0  0  0  0  0  0  0
    4.3319   -0.1745   -0.0668 N   0  0  0  0  0  0  0  0  0  0  0  0
    3.0209   -0.4668   -0.0163 C   0  0  0  0  0  0  0  0  0  0  0  0
    2.6516   -1.4219    0.6396 O   0  0  0  0  0  0  0  0  0  0  0  0
    5.2859   -1.0102    0.6665 C   0  0  0  0  0  0  0  0  0  0  0  0
    3.9672    2.8001   -2.2863 N   0  0  0  0  0  0  0  0  0  0  0  0
    4.7843    3.2667   -2.5219 H   0  0  0  0  0  0  0  0  0  0  0  0
    2.7048    3.1214   -2.6842 C   0  0  0  0  0  0  0  0  0  0  0  0
    1.8517    2.2597   -2.1649 N   0  0  0  0  0  0  0  0  0  0  0  0
    2.3474    4.2559   -3.5588 C   0  0  0  0  0  0  0  0  0  0  0  0
    3.3425    5.1010   -4.0543 C   0  0  0  0  0  0  0  0  0  0  0  0
    3.0024    6.1584   -4.8708 C   0  0  0  0  0  0  0  0  0  0  0  0
    1.6773    6.3870   -5.2020 C   0  0  0  0  0  0  0  0  0  0  0  0
    0.6835    5.5586   -4.7180 C   0  0  0  0  0  0  0  0  0  0  0  0
    1.0087    4.4871   -3.9008 C   0  0  0  0  0  0  0  0  0  0  0  0
    0.0336    3.6687   -3.4295 O   0  0  0  0  0  0  0  0  0  0  0  0
   -1.3170    4.0365   -3.7167 C   0  0  0  0  0  0  0  0  0  0  0  0
   -1.7056    3.5107   -5.1000 C   0  0  0  0  0  0  0  0  0  0  0  0
   -2.2456    3.4316   -2.6619 C   0  0  0  0  0  0  0  0  0  0  0  0
    4.2591    7.2239   -5.4954 S   0  0  0  0  0  0  0  0  0  0  0  0
    3.6298    8.4625   -5.7943 O   0  0  0  0  0  0  0  0  0  0  0  0
    5.3580    7.1243   -4.6000 O   0  0  0  0  0  0  0  0  0  0  0  0
    4.7657    6.5900   -6.9389 N   0  0  0  0  0  0  0  0  0  0  0  0
    5.8686    5.6179   -6.9926 C   0  0  0  0  0  0  0  0  0  0  0  0
    5.4128    4.4115   -7.8200 C   0  0  0  0  0  0  0  0  0  0  0  0
    4.9439    4.8693   -9.1340 N   0  3  0  0  0  0  0  0  0  0  0  0
    3.7519    5.7117   -8.9740 C   0  0  0  0  0  0  0  0  0  0  0  0
    4.1217    6.9783   -8.2032 C   0  0  0  0  0  0  0  0  0  0  0  0
    4.6107    3.7053   -9.9659 C   0  0  0  0  0  0  0  0  0  0  0  0
    1.1010    2.4800    0.2156 H   0  0  0  0  0  0  0  0  0  0  0  0
   -0.4858    2.3723   -0.5838 H   0  0  0  0  0  0  0  0  0  0  0  0
   -0.3905    2.6661    1.1692 H   0  0  0  0  0  0  0  0  0  0  0  0
    0.5977    0.4150    1.4927 H   0  0  0  0  0  0  0  0  0  0  0  0
   -1.9603    0.3977   -0.1727 H   0  0  0  0  0  0  0  0  0  0  0  0
   -1.4240   -0.9014    0.9196 H   0  0  0  0  0  0  0  0  0  0  0  0
   -1.8650    0.6915    1.5803 H   0  0  0  0  0  0  0  0  0  0  0  0
    0.5903   -1.1647   -0.4609 H   0  0  0  0  0  0  0  0  0  0  0  0
    0.1888    0.2057   -1.5235 H   0  0  0  0  0  0  0  0  0  0  0  0
    6.2951   -0.6264    0.5166 H   0  0  0  0  0  0  0  0  0  0  0  0
    5.0439   -0.9909    1.7291 H   0  0  0  0  0  0  0  0  0  0  0  0
    5.2286   -2.0349    0.2993 H   0  0  0  0  0  0  0  0  0  0  0  0
    4.3770    4.9266   -3.7979 H   0  0  0  0  0  0  0  0  0  0  0  0
    1.4194    7.2178   -5.8420 H   0  0  0  0  0  0  0  0  0  0  0  0
   -0.3479    5.7435   -4.9799 H   0  0  0  0  0  0  0  0  0  0  0  0
   -1.4089    5.1225   -3.7019 H   0  0  0  0  0  0  0  0  0  0  0  0
   -2.7358    3.7911   -5.3191 H   0  0  0  0  0  0  0  0  0  0  0  0
   -1.0440    3.9416   -5.8515 H   0  0  0  0  0  0  0  0  0  0  0  0
   -1.6137    2.4246   -5.1149 H   0  0  0  0  0  0  0  0  0  0  0  0
   -1.9688    3.8062   -1.6764 H   0  0  0  0  0  0  0  0  0  0  0  0
   -3.2759    3.7121   -2.8810 H   0  0  0  0  0  0  0  0  0  0  0  0
   -2.1537    2.3456   -2.6767 H   0  0  0  0  0  0  0  0  0  0  0  0
    6.7386    6.0766   -7.4624 H   0  0  0  0  0  0  0  0  0  0  0  0
    6.1217    5.2949   -5.9828 H   0  0  0  0  0  0  0  0  0  0  0  0
    6.2486    3.7243   -7.9515 H   0  0  0  0  0  0  0  0  0  0  0  0
    4.6007    3.9013   -7.3019 H   0  0  0  0  0  0  0  0  0  0  0  0
    3.3639    5.9826   -9.9559 H   0  0  0  0  0  0  0  0  0  0  0  0
    2.9901    5.1622   -8.4210 H   0  0  0  0  0  0  0  0  0  0  0  0
    3.2204    7.5543   -7.9934 H   0  0  0  0  0  0  0  0  0  0  0  0
    4.8123    7.5767   -8.7974 H   0  0  0  0  0  0  0  0  0  0  0  0
    3.8255    3.1252   -9.4812 H   0  0  0  0  0  0  0  0  0  0  0  0
    4.2625    4.0439  -10.9417 H   0  0  0  0  0  0  0  0  0  0  0  0
    5.4968    3.0833  -10.0921 H   0  0  0  0  0  0  0  0  0  0  0  0
    5.6734    5.4027   -9.5829 H   0  0  0  0  0  0  0  0  0  0  0  0
  1  2  1  0  0  0  0
  1 38  1  0  0  0  0
  1 39  1  0  0  0  0
  1 40  1  0  0  0  0
  2  3  1  0  0  0  0
  2  4  1  0  0  0  0
  2 41  1  0  0  0  0
  3 42  1  0  0  0  0
  3 43  1  0  0  0  0
  3 44  1  0  0  0  0
  4  5  1  0  0  0  0
  4 45  1  0  0  0  0
  4 46  1  0  0  0  0
  5 11  1  0  0  0  0
  5  6  1  0  0  0  0
  6 17  1  0  0  0  0
  6  7  2  0  0  0  0
  7  8  1  0  0  0  0
  7 14  1  0  0  0  0
  8  9  2  0  0  0  0
  8 10  1  0  0  0  0
 10 11  1  0  0  0  0
 10 13  1  0  0  0  0
 11 12  2  0  0  0  0
 13 47  1  0  0  0  0
 13 48  1  0  0  0  0
 13 49  1  0  0  0  0
 14 15  1  0  0  0  0
 14 16  1  0  0  0  0
 16 17  2  0  0  0  0
 16 18  1  0  0  0  0
 18 23  2  0  0  0  0
 18 19  1  0  0  0  0
 19 20  2  0  0  0  0
 19 50  1  0  0  0  0
 20 21  1  0  0  0  0
 20 28  1  0  0  0  0
 21 22  2  0  0  0  0
 21 51  1  0  0  0  0
 22 23  1  0  0  0  0
 22 52  1  0  0  0  0
 23 24  1  0  0  0  0
 24 25  1  0  0  0  0
 25 26  1  0  0  0  0
 25 27  1  0  0  0  0
 25 53  1  0  0  0  0
 26 54  1  0  0  0  0
 26 55  1  0  0  0  0
 26 56  1  0  0  0  0
 27 57  1  0  0  0  0
 27 58  1  0  0  0  0
 27 59  1  0  0  0  0
 28 29  2  0  0  0  0
 28 30  2  0  0  0  0
 28 31  1  0  0  0  0
 31 36  1  0  0  0  0
 31 32  1  0  0  0  0
 32 33  1  0  0  0  0
 32 60  1  0  0  0  0
 32 61  1  0  0  0  0
 33 34  1  0  0  0  0
 33 62  1  0  0  0  0
 33 63  1  0  0  0  0
 34 35  1  0  0  0  0
 34 37  1  0  0  0  0
 34 71  1  0  0  0  0
 35 36  1  0  0  0  0
 35 64  1  0  0  0  0
 35 65  1  0  0  0  0
 36 66  1  0  0  0  0
 36 67  1  0  0  0  0
 37 68  1  0  0  0  0
 37 69  1  0  0  0  0
 37 70  1  0  0  0  0
M  CHG  1  34   1
M  END
$$$$
CHEMBL43617
  -OEChem-07121202283D

 35 37  0     0  0  0  0  0  0999 V2000
   -0.0187    1.5258    0.0104 C   0  0  0  0  0  0  0  0  0  0  0  0
    0.0021   -0.0041    0.0020 C   0  0  0  0  0  0  0  0  0  0  0  0
    0.7421   -0.5109    1.2415 C   0  0  0  0  0  0  0  0  0  0  0  0
    0.7614   -1.9398    1.2337 O   0  0  0  0  0  0  0  0  0  0  0  0
    1.3846   -2.5534    2.2721 C   0  0  0  0  0  0  0  0  0  0  0  0
    1.9612   -1.7986    3.2820 C   0  0  0  0  0  0  0  0  0  0  0  0
    2.5953   -2.4243    4.3377 C   0  0  0  0  0  0  0  0  0  0  0  0
    2.6592   -3.8062    4.3952 C   0  0  0  0  0  0  0  0  0  0  0  0
    2.0902   -4.5704    3.3981 C   0  0  0  0  0  0  0  0  0  0  0  0
    1.4423   -3.9502    2.3302 C   0  0  0  0  0  0  0  0  0  0  0  0
    0.8243   -4.7657    1.2598 C   0  0  0  0  0  0  0  0  0  0  0  0
    0.2236   -4.1461    0.2489 N   0  0  0  0  0  0  0  0  0  0  0  0
   -0.3435   -4.8339   -0.7329 C   0  0  0  0  0  0  0  0  0  0  0  0
   -0.2961   -6.2368   -0.6824 C   0  0  0  0  0  0  0  0  0  0  0  0
   -0.7849   -7.3129   -1.5399 C   0  0  0  0  0  0  0  0  0  0  0  0
   -0.4441   -8.4365   -0.9834 N   0  0  0  0  0  0  0  0  0  0  0  0
    0.2567   -8.1804    0.2177 O   0  0  0  0  0  0  0  0  0  0  0  0
    0.3497   -6.8530    0.4057 C   0  0  0  0  0  0  0  0  0  0  0  0
    0.8951   -6.0865    1.3421 N   0  0  0  0  0  0  0  0  0  0  0  0
   -1.5445   -7.1503   -2.8313 C   0  0  0  0  0  0  0  0  0  0  0  0
   -0.9544   -4.1985   -1.7600 O   0  5  0  0  0  0  0  0  0  0  0  0
    1.0039    1.9031    0.0027 H   0  0  0  0  0  0  0  0  0  0  0  0
   -0.5459    1.8868   -0.8726 H   0  0  0  0  0  0  0  0  0  0  0  0
   -0.5289    1.8773    0.9072 H   0  0  0  0  0  0  0  0  0  0  0  0
   -1.0205   -0.3814    0.0098 H   0  0  0  0  0  0  0  0  0  0  0  0
    0.5123   -0.3556   -0.8948 H   0  0  0  0  0  0  0  0  0  0  0  0
    1.7647   -0.1336    1.2338 H   0  0  0  0  0  0  0  0  0  0  0  0
    0.2319   -0.1594    2.1383 H   0  0  0  0  0  0  0  0  0  0  0  0
    1.9149   -0.7203    3.2431 H   0  0  0  0  0  0  0  0  0  0  0  0
    3.0438   -1.8326    5.1219 H   0  0  0  0  0  0  0  0  0  0  0  0
    3.1568   -4.2875    5.2241 H   0  0  0  0  0  0  0  0  0  0  0  0
    2.1428   -5.6481    3.4463 H   0  0  0  0  0  0  0  0  0  0  0  0
   -0.8413   -7.0994   -3.6625 H   0  0  0  0  0  0  0  0  0  0  0  0
   -2.2107   -8.0017   -2.9706 H   0  0  0  0  0  0  0  0  0  0  0  0
   -2.1310   -6.2323   -2.7947 H   0  0  0  0  0  0  0  0  0  0  0  0
  1  2  1  0  0  0  0
  1 22  1  0  0  0  0
  1 23  1  0  0  0  0
  1 24  1  0  0  0  0
  2  3  1  0  0  0  0
  2 25  1  0  0  0  0
  2 26  1  0  0  0  0
  3  4  1  0  0  0  0
  3 27  1  0  0  0  0
  3 28  1  0  0  0  0
  4  5  1  0  0  0  0
  5 10  2  0  0  0  0
  5  6  1  0  0  0  0
  6  7  2  0  0  0  0
  6 29  1  0  0  0  0
  7  8  1  0  0  0  0
  7 30  1  0  0  0  0
  8  9  2  0  0  0  0
  8 31  1  0  0  0  0
  9 10  1  0  0  0  0
  9 32  1  0  0  0  0
 10 11  1  0  0  0  0
 11 19  2  0  0  0  0
 11 12  1  0  0  0  0
 12 13  2  0  0  0  0
 13 14  1  0  0  0  0
 13 21  1  0  0  0  0
 14 18  2  0  0  0  0
 14 15  1  0  0  0  0
 15 16  2  0  0  0  0
 15 20  1  0  0  0  0
 16 17  1  0  0  0  0
 17 18  1  0  0  0  0
 18 19  1  0  0  0  0
 20 33  1  0  0  0  0
 20 34  1  0  0  0  0
 20 35  1  0  0  0  0
M  CHG  1  21  -1
M  END
$$$$
CHEMBL43617
  -OEChem-07121202283D

 36 38  0     0  0  0  0  0  0999 V2000
   -0.0187    1.5258    0.0104 C   0  0  0  0  0  0  0  0  0  0  0  0
    0.0021   -0.0041    0.0020 C   0  0  0  0  0  0  0  0  0  0  0  0
    0.7182   -0.4975   -1.2568 C   0  0  0  0  0  0  0  0  0  0  0  0
    0.7376   -1.9263   -1.2646 O   0  0  0  0  0  0  0  0  0  0  0  0
    1.3404   -2.5284   -2.3207 C   0  0  0  0  0  0  0  0  0  0  0  0
    1.9079   -1.7630   -3.3280 C   0  0  0  0  0  0  0  0  0  0  0  0
    2.5211   -2.3771   -4.4022 C   0  0  0  0  0  0  0  0  0  0  0  0
    2.5749   -3.7590   -4.4826 C   0  0  0  0  0  0  0  0  0  0  0  0
    2.0165   -4.5354   -3.4904 C   0  0  0  0  0  0  0  0  0  0  0  0
    1.3972   -3.9271   -2.3955 C   0  0  0  0  0  0  0  0  0  0  0  0
    0.8021   -4.7516   -1.3275 C   0  0  0  0  0  0  0  0  0  0  0  0
    0.8763   -6.1117   -1.4223 N   0  0  0  0  0  0  0  0  0  0  0  0
    0.3394   -6.8908   -0.4569 C   0  0  0  0  0  0  0  0  0  0  0  0
   -0.2946   -6.2569    0.6422 C   0  0  0  0  0  0  0  0  0  0  0  0
   -0.9472   -6.7292    1.8039 C   0  0  0  0  0  0  0  0  0  0  0  0
   -1.3511   -5.7002    2.4881 N   0  0  0  0  0  0  0  0  0  0  0  0
   -0.9829   -4.5147    1.8083 O   0  0  0  0  0  0  0  0  0  0  0  0
   -0.3372   -4.8560    0.6803 C   0  0  0  0  0  0  0  0  0  0  0  0
    0.2204   -4.1541   -0.3094 N   0  0  0  0  0  0  0  0  0  0  0  0
   -1.1410   -8.1747    2.1834 C   0  0  0  0  0  0  0  0  0  0  0  0
    0.3983   -8.1056   -0.5291 O   0  0  0  0  0  0  0  0  0  0  0  0
    1.0039    1.9031    0.0027 H   0  0  0  0  0  0  0  0  0  0  0  0
   -0.5459    1.8868   -0.8726 H   0  0  0  0  0  0  0  0  0  0  0  0
   -0.5289    1.8773    0.9072 H   0  0  0  0  0  0  0  0  0  0  0  0
    0.5293   -0.3651    0.8851 H   0  0  0  0  0  0  0  0  0  0  0  0
   -1.0205   -0.3814    0.0098 H   0  0  0  0  0  0  0  0  0  0  0  0
    0.1910   -0.1364   -2.1398 H   0  0  0  0  0  0  0  0  0  0  0  0
    1.7408   -0.1202   -1.2645 H   0  0  0  0  0  0  0  0  0  0  0  0
    1.8701   -0.6851   -3.2725 H   0  0  0  0  0  0  0  0  0  0  0  0
    2.9611   -1.7763   -5.1845 H   0  0  0  0  0  0  0  0  0  0  0  0
    3.0563   -4.2301   -5.3269 H   0  0  0  0  0  0  0  0  0  0  0  0
    2.0603   -5.6124   -3.5574 H   0  0  0  0  0  0  0  0  0  0  0  0
   -0.2941   -8.5098    2.7823 H   0  0  0  0  0  0  0  0  0  0  0  0
   -2.0589   -8.2785    2.7620 H   0  0  0  0  0  0  0  0  0  0  0  0
   -1.2101   -8.7813    1.2804 H   0  0  0  0  0  0  0  0  0  0  0  0
    1.3154   -6.5200   -2.1848 H   0  0  0  0  0  0  0  0  0  0  0  0
  1  2  1  0  0  0  0
  1 22  1  0  0  0  0
  1 23  1  0  0  0  0
  1 24  1  0  0  0  0
  2  3  1  0  0  0  0
  2 25  1  0  0  0  0
  2 26  1  0  0  0  0
  3  4  1  0  0  0  0
  3 27  1  0  0  0  0
  3 28  1  0  0  0  0
  4  5  1  0  0  0  0
  5 10  2  0  0  0  0
  5  6  1  0  0  0  0
  6  7  2  0  0  0  0
  6 29  1  0  0  0  0
  7  8  1  0  0  0  0
  7 30  1  0  0  0  0
  8  9  2  0  0  0  0
  8 31  1  0  0  0  0
  9 10  1  0  0  0  0
  9 32  1  0  0  0  0
 10 11  1  0  0  0  0
 11 19  2  0  0  0  0
 11 12  1  0  0  0  0
 12 13  1  0  0  0  0
 12 36  1  0  0  0  0
 13 14  1  0  0  0  0
 13 21  2  0  0  0  0
 14 18  2  0  0  0  0
 14 15  1  0  0  0  0
 15 16  2  0  0  0  0
 15 20  1  0  0  0  0
 16 17  1  0  0  0  0
 17 18  1  0  0  0  0
 18 19  1  0  0  0  0
 20 33  1  0  0  0  0
 20 34  1  0  0  0  0
 20 35  1  0  0  0  0
M  END
$$$$
CHEMBL590545
  -OEChem-07121202283D

 70 73  0     1  0  0  0  0  0999 V2000
    0.0245   -0.0008   -0.7363 C   0  0  0  0  0  0  0  0  0  0  0  0
   -0.2004   -1.5034   -0.5562 C   0  0  0  0  0  0  0  0  0  0  0  0
   -1.6801   -1.7669   -0.2695 C   0  0  0  0  0  0  0  0  0  0  0  0
   -1.8901   -3.1703   -0.1012 O   0  0  0  0  0  0  0  0  0  0  0  0
   -3.2468   -3.5262    0.1723 C   0  0  0  0  0  0  0  0  0  0  0  0
   -3.3534   -5.0441    0.3329 C   0  0  0  0  0  0  0  0  0  0  0  0
   -2.5965   -5.4644    1.5147 N   0  0  0  0  0  0  0  0  0  0  0  0
   -1.2627   -5.7992    1.4104 C   0  0  0  0  0  0  0  0  0  0  0  0
   -0.6039   -5.7469    0.1872 C   0  0  0  0  0  0  0  0  0  0  0  0
    0.7413   -6.0939    0.1350 C   0  0  0  0  0  0  0  0  0  0  0  0
    1.3959   -6.4712    1.2305 N   0  0  0  0  0  0  0  0  0  0  0  0
    0.8153   -6.5355    2.4070 C   0  0  0  0  0  0  0  0  0  0  0  0
   -0.5388   -6.2025    2.5504 C   0  0  0  0  0  0  0  0  0  0  0  0
   -1.1377   -6.2668    3.7556 N   0  0  0  0  0  0  0  0  0  0  0  0
   -2.4022   -5.9569    3.8948 C   0  0  0  0  0  0  0  0  0  0  0  0
   -3.1925   -5.5253    2.7266 C   0  0  0  0  0  0  0  0  0  0  0  0
   -4.3669   -5.2313    2.8514 O   0  0  0  0  0  0  0  0  0  0  0  0
   -2.9974   -6.0299    5.1418 N   0  0  0  0  0  0  0  0  0  0  0  0
   -2.1506   -6.3065    6.3198 C   0  0  0  0  0  0  0  0  0  0  0  0
   -2.5637   -5.4306    7.5165 C   0  0  0  0  0  0  0  0  0  0  0  0
   -2.8985   -4.0382    7.0294 C   0  0  0  0  0  0  0  0  0  0  0  0
   -4.3346   -3.9483    6.7755 N   0  3  2  0  0  0  0  0  0  0  0  0
   -4.7350   -4.3337    5.4769 C   0  0  0  0  0  0  0  0  0  0  0  0
   -4.4277   -5.8264    5.2458 C   0  0  0  0  0  0  0  0  0  0  0  0
   -4.7586   -2.5595    6.9982 C   0  0  0  0  0  0  0  0  0  0  0  0
   -6.2729   -2.4520    6.8084 C   0  0  0  0  0  0  0  0  0  0  0  0
   -6.9321   -3.3110    7.7409 O   0  0  0  0  0  0  0  0  0  0  0  0
    1.4577   -6.0433   -1.1614 C   0  0  0  0  0  0  0  0  0  0  0  0
    2.7802   -6.4923   -1.2601 C   0  0  0  0  0  0  0  0  0  0  0  0
    3.4061   -6.4252   -2.4893 C   0  0  0  0  0  0  0  0  0  0  0  0
    2.7084   -5.9182   -3.5800 C   0  0  0  0  0  0  0  0  0  0  0  0
    1.4590   -5.5014   -3.4536 N   0  0  0  0  0  0  0  0  0  0  0  0
    0.8232   -5.5538   -2.3005 C   0  0  0  0  0  0  0  0  0  0  0  0
    3.3171   -5.8495   -4.7900 O   0  0  0  0  0  0  0  0  0  0  0  0
    2.5501   -5.3196   -5.8730 C   0  0  0  0  0  0  0  0  0  0  0  0
    1.0786    0.1869   -0.9406 H   0  0  0  0  0  0  0  0  0  0  0  0
   -0.5771    0.3591   -1.5710 H   0  0  0  0  0  0  0  0  0  0  0  0
   -0.2678    0.5221    0.1743 H   0  0  0  0  0  0  0  0  0  0  0  0
    0.0919   -2.0263   -1.4668 H   0  0  0  0  0  0  0  0  0  0  0  0
    0.4011   -1.8634    0.2785 H   0  0  0  0  0  0  0  0  0  0  0  0
   -1.9724   -1.2440    0.6412 H   0  0  0  0  0  0  0  0  0  0  0  0
   -2.2816   -1.4069   -1.1041 H   0  0  0  0  0  0  0  0  0  0  0  0
   -3.5716   -3.0399    1.0921 H   0  0  0  0  0  0  0  0  0  0  0  0
   -3.8808   -3.2028   -0.6532 H   0  0  0  0  0  0  0  0  0  0  0  0
   -4.3999   -5.3241    0.4531 H   0  0  0  0  0  0  0  0  0  0  0  0
   -2.9459   -5.5326   -0.5522 H   0  0  0  0  0  0  0  0  0  0  0  0
   -1.1280   -5.4424   -0.7067 H   0  0  0  0  0  0  0  0  0  0  0  0
    1.3851   -6.8474    3.2698 H   0  0  0  0  0  0  0  0  0  0  0  0
   -2.2509   -7.3567    6.5937 H   0  0  0  0  0  0  0  0  0  0  0  0
   -1.1101   -6.1011    6.0685 H   0  0  0  0  0  0  0  0  0  0  0  0
   -3.4377   -5.8660    8.0011 H   0  0  0  0  0  0  0  0  0  0  0  0
   -1.7410   -5.3782    8.2297 H   0  0  0  0  0  0  0  0  0  0  0  0
   -2.6169   -3.3093    7.7894 H   0  0  0  0  0  0  0  0  0  0  0  0
   -2.3526   -3.8338    6.1083 H   0  0  0  0  0  0  0  0  0  0  0  0
   -5.8055   -4.1625    5.3634 H   0  0  0  0  0  0  0  0  0  0  0  0
   -4.1963   -3.7369    4.7409 H   0  0  0  0  0  0  0  0  0  0  0  0
   -4.9080   -6.1522    4.3231 H   0  0  0  0  0  0  0  0  0  0  0  0
   -4.8168   -6.4090    6.0808 H   0  0  0  0  0  0  0  0  0  0  0  0
   -4.4972   -2.2581    8.0126 H   0  0  0  0  0  0  0  0  0  0  0  0
   -4.2557   -1.9072    6.2843 H   0  0  0  0  0  0  0  0  0  0  0  0
   -6.5881   -1.4223    6.9774 H   0  0  0  0  0  0  0  0  0  0  0  0
   -6.5339   -2.7498    5.7928 H   0  0  0  0  0  0  0  0  0  0  0  0
   -7.8969   -3.2938    7.6775 H   0  0  0  0  0  0  0  0  0  0  0  0
    3.2983   -6.8812   -0.3959 H   0  0  0  0  0  0  0  0  0  0  0  0
    4.4259   -6.7623   -2.6020 H   0  0  0  0  0  0  0  0  0  0  0  0
   -0.1984   -5.2092   -2.2371 H   0  0  0  0  0  0  0  0  0  0  0  0
    1.6635   -5.9350   -6.0257 H   0  0  0  0  0  0  0  0  0  0  0  0
    2.2478   -4.2988   -5.6389 H   0  0  0  0  0  0  0  0  0  0  0  0
    3.1538   -5.3206   -6.7805 H   0  0  0  0  0  0  0  0  0  0  0  0
   -4.8132   -4.5341    7.4432 H   0  0  0  0  0  0  0  0  0  0  0  0
  1  2  1  0  0  0  0
  1 36  1  0  0  0  0
  1 37  1  0  0  0  0
  1 38  1  0  0  0  0
  2  3  1  0  0  0  0
  2 39  1  0  0  0  0
  2 40  1  0  0  0  0
  3  4  1  0  0  0  0
  3 41  1  0  0  0  0
  3 42  1  0  0  0  0
  4  5  1  0  0  0  0
  5  6  1  0  0  0  0
  5 43  1  0  0  0  0
  5 44  1  0  0  0  0
  6  7  1  0  0  0  0
  6 45  1  0  0  0  0
  6 46  1  0  0  0  0
  7 16  1  0  0  0  0
  7  8  1  0  0  0  0
  8 13  2  0  0  0  0
  8  9  1  0  0  0  0
  9 10  2  0  0  0  0
  9 47  1  0  0  0  0
 10 11  1  0  0  0  0
 10 28  1  0  0  0  0
 11 12  2  0  0  0  0
 12 13  1  0  0  0  0
 12 48  1  0  0  0  0
 13 14  1  0  0  0  0
 14 15  2  0  0  0  0
 15 16  1  0  0  0  0
 15 18  1  0  0  0  0
 16 17  2  0  0  0  0
 18 24  1  0  0  0  0
 18 19  1  0  0  0  0
 19 20  1  0  0  0  0
 19 49  1  0  0  0  0
 19 50  1  0  0  0  0
 20 21  1  0  0  0  0
 20 51  1  0  0  0  0
 20 52  1  0  0  0  0
 21 22  1  0  0  0  0
 21 53  1  0  0  0  0
 21 54  1  0  0  0  0
 22 23  1  0  0  0  0
 22 25  1  0  0  0  0
 22 70  1  0  0  0  0
 23 24  1  0  0  0  0
 23 55  1  0  0  0  0
 23 56  1  0  0  0  0
 24 57  1  0  0  0  0
 24 58  1  0  0  0  0
 25 26  1  0  0  0  0
 25 59  1  0  0  0  0
 25 60  1  0  0  0  0
 26 27  1  0  0  0  0
 26 61  1  0  0  0  0
 26 62  1  0  0  0  0
 27 63  1  0  0  0  0
 28 33  2  0  0  0  0
 28 29  1  0  0  0  0
 29 30  2  0  0  0  0
 29 64  1  0  0  0  0
 30 31  1  0  0  0  0
 30 65  1  0  0  0  0
 31 32  2  0  0  0  0
 31 34  1  0  0  0  0
 32 33  1  0  0  0  0
 33 66  1  0  0  0  0
 34 35  1  0  0  0  0
 35 67  1  0  0  0  0
 35 68  1  0  0  0  0
 35 69  1  0  0  0  0
M  CHG  1  22   1
M  END
$$$$
CHEMBL590544
  -OEChem-07121202283D

 70 73  0     0  0  0  0  0  0999 V2000
    1.0093    1.4656    0.6814 C   0  0  0  0  0  0  0  0  0  0  0  0
    0.7587   -0.0328    0.5004 C   0  0  0  0  0  0  0  0  0  0  0  0
   -0.7461   -0.3065    0.5385 C   0  0  0  0  0  0  0  0  0  0  0  0
   -0.9802   -1.7060    0.3694 O   0  0  0  0  0  0  0  0  0  0  0  0
   -2.3616   -2.0709    0.3897 C   0  0  0  0  0  0  0  0  0  0  0  0
   -2.4924   -3.5836    0.2010 C   0  0  0  0  0  0  0  0  0  0  0  0
   -1.8927   -4.2723    1.3466 N   0  0  0  0  0  0  0  0  0  0  0  0
   -0.5575   -4.6173    1.3367 C   0  0  0  0  0  0  0  0  0  0  0  0
    0.2511   -4.3222    0.2448 C   0  0  0  0  0  0  0  0  0  0  0  0
    1.5911   -4.6909    0.2841 C   0  0  0  0  0  0  0  0  0  0  0  0
    2.1004   -5.3157    1.3430 N   0  0  0  0  0  0  0  0  0  0  0  0
    1.3751   -5.6148    2.3965 C   0  0  0  0  0  0  0  0  0  0  0  0
    0.0148   -5.2793    2.4414 C   0  0  0  0  0  0  0  0  0  0  0  0
   -0.7322   -5.5840    3.5205 N   0  0  0  0  0  0  0  0  0  0  0  0
   -2.0032   -5.2729    3.5673 C   0  0  0  0  0  0  0  0  0  0  0  0
   -2.6377   -4.5751    2.4332 C   0  0  0  0  0  0  0  0  0  0  0  0
   -3.8175   -4.2792    2.4737 O   0  0  0  0  0  0  0  0  0  0  0  0
   -2.7519   -5.5952    4.6854 N   0  0  0  0  0  0  0  0  0  0  0  0
   -4.2113   -5.4105    4.6975 C   0  0  0  0  0  0  0  0  0  0  0  0
   -4.8616   -6.7119    5.1784 C   0  0  0  0  0  0  0  0  0  0  0  0
   -4.2883   -7.0944    6.4750 N   0  3  0  0  0  0  0  0  0  0  0  0
   -2.8605   -7.4001    6.3199 C   0  0  0  0  0  0  0  0  0  0  0  0
   -2.1117   -6.1381    5.8936 C   0  0  0  0  0  0  0  0  0  0  0  0
   -4.9882   -8.2801    6.9872 C   0  0  0  0  0  0  0  0  0  0  0  0
   -4.4782   -8.6059    8.3924 C   0  0  0  0  0  0  0  0  0  0  0  0
   -5.2072   -9.8408    8.9259 C   0  0  0  0  0  0  0  0  0  0  0  0
   -4.7309  -10.1452   10.2384 O   0  0  0  0  0  0  0  0  0  0  0  0
    2.4661   -4.3834   -0.8718 C   0  0  0  0  0  0  0  0  0  0  0  0
    3.7891   -4.8408   -0.9026 C   0  0  0  0  0  0  0  0  0  0  0  0
    4.5659   -4.5290   -2.0010 C   0  0  0  0  0  0  0  0  0  0  0  0
    4.0137   -3.7773   -3.0322 C   0  0  0  0  0  0  0  0  0  0  0  0
    2.7596   -3.3595   -2.9726 N   0  0  0  0  0  0  0  0  0  0  0  0
    1.9826   -3.6402   -1.9459 C   0  0  0  0  0  0  0  0  0  0  0  0
    4.7710   -3.4676   -4.1138 O   0  0  0  0  0  0  0  0  0  0  0  0
    4.1491   -2.6930   -5.1410 C   0  0  0  0  0  0  0  0  0  0  0  0
    2.0814    1.6606    0.6542 H   0  0  0  0  0  0  0  0  0  0  0  0
    0.5195    2.0156   -0.1222 H   0  0  0  0  0  0  0  0  0  0  0  0
    0.6055    1.7882    1.6411 H   0  0  0  0  0  0  0  0  0  0  0  0
    1.1625   -0.3554   -0.4593 H   0  0  0  0  0  0  0  0  0  0  0  0
    1.2485   -0.5828    1.3039 H   0  0  0  0  0  0  0  0  0  0  0  0
   -1.1499    0.0161    1.4982 H   0  0  0  0  0  0  0  0  0  0  0  0
   -1.2359    0.2435   -0.2651 H   0  0  0  0  0  0  0  0  0  0  0  0
   -2.7989   -1.7850    1.3463 H   0  0  0  0  0  0  0  0  0  0  0  0
   -2.8850   -1.5576   -0.4169 H   0  0  0  0  0  0  0  0  0  0  0  0
   -3.5466   -3.8508    0.1276 H   0  0  0  0  0  0  0  0  0  0  0  0
   -1.9775   -3.8817   -0.7123 H   0  0  0  0  0  0  0  0  0  0  0  0
   -0.1545   -3.8160   -0.6186 H   0  0  0  0  0  0  0  0  0  0  0  0
    1.8300   -6.1230    3.2339 H   0  0  0  0  0  0  0  0  0  0  0  0
   -4.4720   -4.5983    5.3760 H   0  0  0  0  0  0  0  0  0  0  0  0
   -4.5593   -5.1772    3.6913 H   0  0  0  0  0  0  0  0  0  0  0  0
   -5.9360   -6.5633    5.2857 H   0  0  0  0  0  0  0  0  0  0  0  0
   -4.6747   -7.5020    4.4511 H   0  0  0  0  0  0  0  0  0  0  0  0
   -2.4604   -7.7585    7.2684 H   0  0  0  0  0  0  0  0  0  0  0  0
   -2.7341   -8.1693    5.5581 H   0  0  0  0  0  0  0  0  0  0  0  0
   -1.0724   -6.3855    5.6777 H   0  0  0  0  0  0  0  0  0  0  0  0
   -2.1569   -5.4005    6.6949 H   0  0  0  0  0  0  0  0  0  0  0  0
   -6.0592   -8.0811    7.0264 H   0  0  0  0  0  0  0  0  0  0  0  0
   -4.7999   -9.1266    6.3269 H   0  0  0  0  0  0  0  0  0  0  0  0
   -3.4073   -8.8049    8.3532 H   0  0  0  0  0  0  0  0  0  0  0  0
   -4.6665   -7.7594    9.0527 H   0  0  0  0  0  0  0  0  0  0  0  0
   -6.2782   -9.6418    8.9651 H   0  0  0  0  0  0  0  0  0  0  0  0
   -5.0189  -10.6874    8.2656 H   0  0  0  0  0  0  0  0  0  0  0  0
   -5.1503  -10.9187   10.6394 H   0  0  0  0  0  0  0  0  0  0  0  0
    4.1923   -5.4228   -0.0871 H   0  0  0  0  0  0  0  0  0  0  0  0
    5.5907   -4.8649   -2.0582 H   0  0  0  0  0  0  0  0  0  0  0  0
    0.9623   -3.2864   -1.9350 H   0  0  0  0  0  0  0  0  0  0  0  0
    3.2871   -3.2335   -5.5322 H   0  0  0  0  0  0  0  0  0  0  0  0
    3.8228   -1.7381   -4.7289 H   0  0  0  0  0  0  0  0  0  0  0  0
    4.8629   -2.5165   -5.9456 H   0  0  0  0  0  0  0  0  0  0  0  0
   -4.3990   -6.3333    7.1280 H   0  0  0  0  0  0  0  0  0  0  0  0
  1  2  1  0  0  0  0
  1 36  1  0  0  0  0
  1 37  1  0  0  0  0
  1 38  1  0  0  0  0
  2  3  1  0  0  0  0
  2 39  1  0  0  0  0
  2 40  1  0  0  0  0
  3  4  1  0  0  0  0
  3 41  1  0  0  0  0
  3 42  1  0  0  0  0
  4  5  1  0  0  0  0
  5  6  1  0  0  0  0
  5 43  1  0  0  0  0
  5 44  1  0  0  0  0
  6  7  1  0  0  0  0
  6 45  1  0  0  0  0
  6 46  1  0  0  0  0
  7 16  1  0  0  0  0
  7  8  1  0  0  0  0
  8 13  2  0  0  0  0
  8  9  1  0  0  0  0
  9 10  2  0  0  0  0
  9 47  1  0  0  0  0
 10 11  1  0  0  0  0
 10 28  1  0  0  0  0
 11 12  2  0  0  0  0
 12 13  1  0  0  0  0
 12 48  1  0  0  0  0
 13 14  1  0  0  0  0
 14 15  2  0  0  0  0
 15 16  1  0  0  0  0
 15 18  1  0  0  0  0
 16 17  2  0  0  0  0
 18 23  1  0  0  0  0
 18 19  1  0  0  0  0
 19 20  1  0  0  0  0
 19 49  1  0  0  0  0
 19 50  1  0  0  0  0
 20 21  1  0  0  0  0
 20 51  1  0  0  0  0
 20 52  1  0  0  0  0
 21 22  1  0  0  0  0
 21 24  1  0  0  0  0
 21 70  1  0  0  0  0
 22 23  1  0  0  0  0
 22 53  1  0  0  0  0
 22 54  1  0  0  0  0
 23 55  1  0  0  0  0
 23 56  1  0  0  0  0
 24 25  1  0  0  0  0
 24 57  1  0  0  0  0
 24 58  1  0  0  0  0
 25 26  1  0  0  0  0
 25 59  1  0  0  0  0
 25 60  1  0  0  0  0
 26 27  1  0  0  0  0
 26 61  1  0  0  0  0
 26 62  1  0  0  0  0
 27 63  1  0  0  0  0
 28 33  2  0  0  0  0
 28 29  1  0  0  0  0
 29 30  2  0  0  0  0
 29 64  1  0  0  0  0
 30 31  1  0  0  0  0
 30 65  1  0  0  0  0
 31 32  2  0  0  0  0
 31 34  1  0  0  0  0
 32 33  1  0  0  0  0
 33 66  1  0  0  0  0
 34 35  1  0  0  0  0
 35 67  1  0  0  0  0
 35 68  1  0  0  0  0
 35 69  1  0  0  0  0
M  CHG  1  21   1
M  END
$$$$
CHEMBL590544
  -OEChem-07121202283D

 69 72  0     0  0  0  0  0  0999 V2000
   -1.1182    1.4364    0.5668 C   0  0  0  0  0  0  0  0  0  0  0  0
   -0.8113   -0.0543    0.4096 C   0  0  0  0  0  0  0  0  0  0  0  0
   -0.0882   -0.2889   -0.9181 C   0  0  0  0  0  0  0  0  0  0  0  0
    0.1984   -1.6811   -1.0650 O   0  0  0  0  0  0  0  0  0  0  0  0
    0.8768   -2.0100   -2.2789 C   0  0  0  0  0  0  0  0  0  0  0  0
    1.1307   -3.5180   -2.3288 C   0  0  0  0  0  0  0  0  0  0  0  0
   -0.1497   -4.2268   -2.3961 N   0  0  0  0  0  0  0  0  0  0  0  0
   -0.8023   -4.6064   -1.2420 C   0  0  0  0  0  0  0  0  0  0  0  0
   -0.2654   -4.3280    0.0099 C   0  0  0  0  0  0  0  0  0  0  0  0
   -0.9626   -4.7315    1.1430 C   0  0  0  0  0  0  0  0  0  0  0  0
   -2.1238   -5.3738    1.0422 N   0  0  0  0  0  0  0  0  0  0  0  0
   -2.6691   -5.6582   -0.1185 C   0  0  0  0  0  0  0  0  0  0  0  0
   -2.0341   -5.2877   -1.3121 C   0  0  0  0  0  0  0  0  0  0  0  0
   -2.5906   -5.5772   -2.5044 N   0  0  0  0  0  0  0  0  0  0  0  0
   -2.0015   -5.2333   -3.6220 C   0  0  0  0  0  0  0  0  0  0  0  0
   -0.7138   -4.5146   -3.5904 C   0  0  0  0  0  0  0  0  0  0  0  0
   -0.1645   -4.1883   -4.6262 O   0  0  0  0  0  0  0  0  0  0  0  0
   -2.5906   -5.5407   -4.8356 N   0  0  0  0  0  0  0  0  0  0  0  0
   -1.8736   -5.3189   -6.1005 C   0  0  0  0  0  0  0  0  0  0  0  0
   -1.9273   -6.6105   -6.9235 C   0  0  0  0  0  0  0  0  0  0  0  0
   -3.3255   -7.0371   -7.0686 N   0  0  0  0  0  0  0  0  0  0  0  0
   -3.9225   -7.3587   -5.7654 C   0  0  0  0  0  0  0  0  0  0  0  0
   -3.9482   -6.1035   -4.8947 C   0  0  0  0  0  0  0  0  0  0  0  0
   -3.4360   -8.1734   -7.9930 C   0  0  0  0  0  0  0  0  0  0  0  0
   -4.9101   -8.4293   -8.3128 C   0  0  0  0  0  0  0  0  0  0  0  0
   -5.0252   -9.6127   -9.2756 C   0  0  0  0  0  0  0  0  0  0  0  0
   -6.4020   -9.8517   -9.5742 O   0  0  0  0  0  0  0  0  0  0  0  0
   -0.4035   -4.4422    2.4847 C   0  0  0  0  0  0  0  0  0  0  0  0
   -1.0301   -4.9337    3.6363 C   0  0  0  0  0  0  0  0  0  0  0  0
   -0.4718   -4.6377    4.8643 C   0  0  0  0  0  0  0  0  0  0  0  0
    0.6847   -3.8676    4.9169 C   0  0  0  0  0  0  0  0  0  0  0  0
    1.2526   -3.4176    3.8097 N   0  0  0  0  0  0  0  0  0  0  0  0
    0.7560   -3.6822    2.6181 C   0  0  0  0  0  0  0  0  0  0  0  0
    1.2382   -3.5733    6.1196 O   0  0  0  0  0  0  0  0  0  0  0  0
    2.4257   -2.7785    6.1102 C   0  0  0  0  0  0  0  0  0  0  0  0
   -0.1866    2.0022    0.5555 H   0  0  0  0  0  0  0  0  0  0  0  0
   -1.7531    1.7654   -0.2558 H   0  0  0  0  0  0  0  0  0  0  0  0
   -1.6333    1.6035    1.5127 H   0  0  0  0  0  0  0  0  0  0  0  0
   -0.1764   -0.3833    1.2323 H   0  0  0  0  0  0  0  0  0  0  0  0
   -1.7429   -0.6201    0.4209 H   0  0  0  0  0  0  0  0  0  0  0  0
   -0.7231    0.0401   -1.7407 H   0  0  0  0  0  0  0  0  0  0  0  0
    0.8434    0.2770   -0.9294 H   0  0  0  0  0  0  0  0  0  0  0  0
    0.2619   -1.7168   -3.1297 H   0  0  0  0  0  0  0  0  0  0  0  0
    1.8284   -1.4799   -2.3184 H   0  0  0  0  0  0  0  0  0  0  0  0
    1.7252   -3.7574   -3.2104 H   0  0  0  0  0  0  0  0  0  0  0  0
    1.6695   -3.8256   -1.4326 H   0  0  0  0  0  0  0  0  0  0  0  0
    0.6767   -3.8078    0.1005 H   0  0  0  0  0  0  0  0  0  0  0  0
   -3.6132   -6.1815   -0.1535 H   0  0  0  0  0  0  0  0  0  0  0  0
   -2.3511   -4.5112   -6.6553 H   0  0  0  0  0  0  0  0  0  0  0  0
   -0.8354   -5.0602   -5.8924 H   0  0  0  0  0  0  0  0  0  0  0  0
   -1.4974   -6.4319   -7.9090 H   0  0  0  0  0  0  0  0  0  0  0  0
   -1.3602   -7.3898   -6.4145 H   0  0  0  0  0  0  0  0  0  0  0  0
   -4.9395   -7.7228   -5.9111 H   0  0  0  0  0  0  0  0  0  0  0  0
   -3.3276   -8.1276   -5.2726 H   0  0  0  0  0  0  0  0  0  0  0  0
   -4.2810   -6.3633   -3.8898 H   0  0  0  0  0  0  0  0  0  0  0  0
   -4.6289   -5.3726   -5.3313 H   0  0  0  0  0  0  0  0  0  0  0  0
   -2.8986   -7.9462   -8.9137 H   0  0  0  0  0  0  0  0  0  0  0  0
   -3.0051   -9.0613   -7.5304 H   0  0  0  0  0  0  0  0  0  0  0  0
   -5.4475   -8.6564   -7.3920 H   0  0  0  0  0  0  0  0  0  0  0  0
   -5.3410   -7.5413   -8.7753 H   0  0  0  0  0  0  0  0  0  0  0  0
   -4.4878   -9.3856  -10.1963 H   0  0  0  0  0  0  0  0  0  0  0  0
   -4.5943  -10.5007   -8.8130 H   0  0  0  0  0  0  0  0  0  0  0  0
   -6.5505  -10.5900  -10.1808 H   0  0  0  0  0  0  0  0  0  0  0  0
   -1.9282   -5.5294    3.5660 H   0  0  0  0  0  0  0  0  0  0  0  0
   -0.9286   -5.0000    5.7735 H   0  0  0  0  0  0  0  0  0  0  0  0
    1.2504   -3.3020    1.7363 H   0  0  0  0  0  0  0  0  0  0  0  0
    3.2040   -3.2948    5.5482 H   0  0  0  0  0  0  0  0  0  0  0  0
    2.2159   -1.8172    5.6412 H   0  0  0  0  0  0  0  0  0  0  0  0
    2.7632   -2.6174    7.1340 H   0  0  0  0  0  0  0  0  0  0  0  0
  1  2  1  0  0  0  0
  1 36  1  0  0  0  0
  1 37  1  0  0  0  0
  1 38  1  0  0  0  0
  2  3  1  0  0  0  0
  2 39  1  0  0  0  0
  2 40  1  0  0  0  0
  3  4  1  0  0  0  0
  3 41  1  0  0  0  0
  3 42  1  0  0  0  0
  4  5  1  0  0  0  0
  5  6  1  0  0  0  0
  5 43  1  0  0  0  0
  5 44  1  0  0  0  0
  6  7  1  0  0  0  0
  6 45  1  0  0  0  0
  6 46  1  0  0  0  0
  7 16  1  0  0  0  0
  7  8  1  0  0  0  0
  8 13  2  0  0  0  0
  8  9  1  0  0  0  0
  9 10  2  0  0  0  0
  9 47  1  0  0  0  0
 10 11  1  0  0  0  0
 10 28  1  0  0  0  0
 11 12  2  0  0  0  0
 12 13  1  0  0  0  0
 12 48  1  0  0  0  0
 13 14  1  0  0  0  0
 14 15  2  0  0  0  0
 15 16  1  0  0  0  0
 15 18  1  0  0  0  0
 16 17  2  0  0  0  0
 18 23  1  0  0  0  0
 18 19  1  0  0  0  0
 19 20  1  0  0  0  0
 19 49  1  0  0  0  0
 19 50  1  0  0  0  0
 20 21  1  0  0  0  0
 20 51  1  0  0  0  0
 20 52  1  0  0  0  0
 21 22  1  0  0  0  0
 21 24  1  0  0  0  0
 22 23  1  0  0  0  0
 22 53  1  0  0  0  0
 22 54  1  0  0  0  0
 23 55  1  0  0  0  0
 23 56  1  0  0  0  0
 24 25  1  0  0  0  0
 24 57  1  0  0  0  0
 24 58  1  0  0  0  0
 25 26  1  0  0  0  0
 25 59  1  0  0  0  0
 25 60  1  0  0  0  0
 26 27  1  0  0  0  0
 26 61  1  0  0  0  0
 26 62  1  0  0  0  0
 27 63  1  0  0  0  0
 28 33  2  0  0  0  0
 28 29  1  0  0  0  0
 29 30  2  0  0  0  0
 29 64  1  0  0  0  0
 30 31  1  0  0  0  0
 30 65  1  0  0  0  0
 31 32  2  0  0  0  0
 31 34  1  0  0  0  0
 32 33  1  0  0  0  0
 33 66  1  0  0  0  0
 34 35  1  0  0  0  0
 35 67  1  0  0  0  0
 35 68  1  0  0  0  0
 35 69  1  0  0  0  0
M  END
$$$$
CHEMBL187548
  -OEChem-07121202283D

 46 48  0     0  0  0  0  0  0999 V2000
   -0.0173    1.3782    0.0002 C   0  0  0  0  0  0  0  0  0  0  0  0
    1.1692    2.0881   -0.0081 C   0  0  0  0  0  0  0  0  0  0  0  0
    2.3768    1.4174   -0.0229 C   0  0  0  0  0  0  0  0  0  0  0  0
    2.3984    0.0302   -0.0289 C   0  0  0  0  0  0  0  0  0  0  0  0
    1.2066   -0.6798   -0.0200 C   0  0  0  0  0  0  0  0  0  0  0  0
    0.0016   -0.0043   -0.0058 C   0  0  0  0  0  0  0  0  0  0  0  0
    3.5850   -0.6319   -0.0439 O   0  0  0  0  0  0  0  0  0  0  0  0
    3.5311   -2.0599   -0.0493 C   0  0  0  0  0  0  0  0  0  0  0  0
    4.9319   -2.6154   -0.0660 C   0  0  0  0  0  0  0  0  0  0  0  0
    6.0118   -1.7466   -0.0678 C   0  0  0  0  0  0  0  0  0  0  0  0
    7.2983   -2.2618   -0.0833 C   0  0  0  0  0  0  0  0  0  0  0  0
    7.4591   -3.6386   -0.0964 C   0  0  0  0  0  0  0  0  0  0  0  0
    6.3282   -4.4519   -0.0937 C   0  0  0  0  0  0  0  0  0  0  0  0
    5.1129   -3.9178   -0.0733 N   0  0  0  0  0  0  0  0  0  0  0  0
    6.4829   -5.9250   -0.1076 C   0  0  0  0  0  0  0  0  0  0  0  0
    7.5930   -6.4192   -0.1213 O   0  0  0  0  0  0  0  0  0  0  0  0
    5.3926   -6.7171   -0.1050 N   0  0  0  0  0  0  0  0  0  0  0  0
    5.5344   -8.0978   -0.2248 C   0  0  0  0  0  0  0  0  0  0  0  0
    4.4033   -8.9003   -0.3274 C   0  0  0  0  0  0  0  0  0  0  0  0
    4.5585  -10.2699   -0.4463 C   0  0  0  0  0  0  0  0  0  0  0  0
    5.8449  -10.7922   -0.4586 C   0  0  0  0  0  0  0  0  0  0  0  0
    6.9231   -9.9362   -0.3526 C   0  0  0  0  0  0  0  0  0  0  0  0
    6.7447   -8.6334   -0.2454 N   0  0  0  0  0  0  0  0  0  0  0  0
    8.3219  -10.4968   -0.3653 C   0  0  0  0  0  0  0  0  0  0  0  0
    9.1218   -9.8266   -1.4525 C   0  0  0  0  0  0  0  0  0  0  0  0
    8.6067   -8.9773   -2.1485 O   0  0  0  0  0  0  0  0  0  0  0  0
   10.4095  -10.1710   -1.6514 N   0  0  0  0  0  0  0  0  0  0  0  0
   11.1612   -9.5412   -2.6729 O   0  0  0  0  0  0  0  0  0  0  0  0
   -0.9603    1.9044    0.0160 H   0  0  0  0  0  0  0  0  0  0  0  0
    1.1518    3.1680   -0.0035 H   0  0  0  0  0  0  0  0  0  0  0  0
    3.3032    1.9724   -0.0302 H   0  0  0  0  0  0  0  0  0  0  0  0
    1.2208   -1.7597   -0.0250 H   0  0  0  0  0  0  0  0  0  0  0  0
   -0.9265   -0.5566    0.0011 H   0  0  0  0  0  0  0  0  0  0  0  0
    3.0131   -2.4073    0.8447 H   0  0  0  0  0  0  0  0  0  0  0  0
    2.9948   -2.3999   -0.9352 H   0  0  0  0  0  0  0  0  0  0  0  0
    5.8523   -0.6785   -0.0577 H   0  0  0  0  0  0  0  0  0  0  0  0
    8.1560   -1.6056   -0.0854 H   0  0  0  0  0  0  0  0  0  0  0  0
    8.4471   -4.0745   -0.1090 H   0  0  0  0  0  0  0  0  0  0  0  0
    4.5090   -6.3259   -0.0197 H   0  0  0  0  0  0  0  0  0  0  0  0
    3.4170   -8.4603   -0.3140 H   0  0  0  0  0  0  0  0  0  0  0  0
    3.6985  -10.9181   -0.5273 H   0  0  0  0  0  0  0  0  0  0  0  0
    6.0005  -11.8570   -0.5497 H   0  0  0  0  0  0  0  0  0  0  0  0
    8.7953  -10.3140    0.5993 H   0  0  0  0  0  0  0  0  0  0  0  0
    8.2816  -11.5698   -0.5528 H   0  0  0  0  0  0  0  0  0  0  0  0
   10.8215  -10.8502   -1.0947 H   0  0  0  0  0  0  0  0  0  0  0  0
   12.0739   -9.8538   -2.7393 H   0  0  0  0  0  0  0  0  0  0  0  0
  1  6  2  0  0  0  0
  1  2  1  0  0  0  0
  1 29  1  0  0  0  0
  2  3  2  0  0  0  0
  2 30  1  0  0  0  0
  3  4  1  0  0  0  0
  3 31  1  0  0  0  0
  4  5  2  0  0  0  0
  4  7  1  0  0  0  0
  5  6  1  0  0  0  0
  5 32  1  0  0  0  0
  6 33  1  0  0  0  0
  7  8  1  0  0  0  0
  8  9  1  0  0  0  0
  8 34  1  0  0  0  0
  8 35  1  0  0  0  0
  9 14  2  0  0  0  0
  9 10  1  0  0  0  0
 10 11  2  0  0  0  0
 10 36  1  0  0  0  0
 11 12  1  0  0  0  0
 11 37  1  0  0  0  0
 12 13  2  0  0  0  0
 12 38  1  0  0  0  0
 13 14  1  0  0  0  0
 13 15  1  0  0  0  0
 15 16  2  0  0  0  0
 15 17  1  0  0  0  0
 17 18  1  0  0  0  0
 17 39  1  0  0  0  0
 18 23  2  0  0  0  0
 18 19  1  0  0  0  0
 19 20  2  0  0  0  0
 19 40  1  0  0  0  0
 20 21  1  0  0  0  0
 20 41  1  0  0  0  0
 21 22  2  0  0  0  0
 21 42  1  0  0  0  0
 22 23  1  0  0  0  0
 22 24  1  0  0  0  0
 24 25  1  0  0  0  0
 24 43  1  0  0  0  0
 24 44  1  0  0  0  0
 25 26  2  0  0  0  0
 25 27  1  0  0  0  0
 27 28  1  0  0  0  0
 27 45  1  0  0  0  0
 28 46  1  0  0  0  0
M  END
$$$$
CHEMBL434135
  -OEChem-07121202283D

 71 75  0     0  0  0  0  0  0999 V2000
   -0.0187    1.5258    0.0104 C   0  0  0  0  0  0  0  0  0  0  0  0
    0.0021   -0.0041    0.0020 C   0  0  0  0  0  0  0  0  0  0  0  0
    0.6709   -0.4649   -1.1737 O   0  0  0  0  0  0  0  0  0  0  0  0
    0.7766   -1.8083   -1.3359 C   0  0  0  0  0  0  0  0  0  0  0  0
    0.2436   -2.6681   -0.3879 C   0  0  0  0  0  0  0  0  0  0  0  0
    0.3523   -4.0350   -0.5540 C   0  0  0  0  0  0  0  0  0  0  0  0
    0.9923   -4.5566   -1.6658 C   0  0  0  0  0  0  0  0  0  0  0  0
    1.5275   -3.7158   -2.6182 C   0  0  0  0  0  0  0  0  0  0  0  0
    1.4197   -2.3321   -2.4649 C   0  0  0  0  0  0  0  0  0  0  0  0
    1.9853   -1.4260   -3.4841 C   0  0  0  0  0  0  0  0  0  0  0  0
    1.8802   -0.1306   -3.3119 N   0  0  0  0  0  0  0  0  0  0  0  0
    2.3819    0.7351   -4.2157 C   0  0  0  0  0  0  0  0  0  0  0  0
    3.0260    0.2413   -5.3575 C   0  0  0  0  0  0  0  0  0  0  0  0
    3.1310   -1.1585   -5.5292 C   0  0  0  0  0  0  0  0  0  0  0  0
    2.6086   -1.9635   -4.5776 N   0  0  0  0  0  0  0  0  0  0  0  0
    3.6837   -1.6275   -6.5091 O   0  0  0  0  0  0  0  0  0  0  0  0
    3.4288    1.3247   -6.0878 N   0  0  0  0  0  0  0  0  0  0  0  0
    3.0348    2.4793   -5.3991 N   0  0  0  0  0  0  0  0  0  0  0  0
    2.4193    2.1406   -4.2987 C   0  0  0  0  0  0  0  0  0  0  0  0
    1.8436    3.0956   -3.2849 C   0  0  0  0  0  0  0  0  0  0  0  0
    0.8208    4.0314   -3.9618 C   0  0  0  0  0  0  0  0  0  0  0  0
    1.0331    5.3963   -3.2611 C   0  0  0  0  0  0  0  0  0  0  0  0
    2.5693    5.4474   -3.0703 C   0  0  0  0  0  0  0  0  0  0  0  0
    2.9553    3.9959   -2.7181 C   0  0  0  0  0  0  0  0  0  0  0  0
    4.1465    1.2851   -7.3644 C   0  0  0  0  0  0  0  0  0  0  0  0
    1.1237   -6.3025   -1.8637 S   0  0  0  0  0  0  0  0  0  0  0  0
    2.2427   -6.5324   -2.7089 O   0  0  0  0  0  0  0  0  0  0  0  0
    1.0220   -6.8674   -0.5638 O   0  0  0  0  0  0  0  0  0  0  0  0
   -0.2137   -6.8022   -2.7028 N   0  0  0  0  0  0  0  0  0  0  0  0
   -1.4440   -7.1940   -1.9985 C   0  0  0  0  0  0  0  0  0  0  0  0
   -2.6213   -6.4295   -2.6131 C   0  0  0  0  0  0  0  0  0  0  0  0
   -2.6397   -6.6503   -4.0653 N   0  0  0  0  0  0  0  0  0  0  0  0
   -1.4288   -6.1144   -4.7013 C   0  0  0  0  0  0  0  0  0  0  0  0
   -0.2047   -6.8602   -4.1725 C   0  0  0  0  0  0  0  0  0  0  0  0
   -3.8496   -6.0768   -4.6697 C   0  0  0  0  0  0  0  0  0  0  0  0
   -3.9598   -6.5364   -6.1248 C   0  0  0  0  0  0  0  0  0  0  0  0
   -4.1522   -7.9519   -6.1640 O   0  0  0  0  0  0  0  0  0  0  0  0
    1.0039    1.9031    0.0027 H   0  0  0  0  0  0  0  0  0  0  0  0
   -0.5459    1.8868   -0.8726 H   0  0  0  0  0  0  0  0  0  0  0  0
   -0.5289    1.8773    0.9072 H   0  0  0  0  0  0  0  0  0  0  0  0
    0.5293   -0.3651    0.8851 H   0  0  0  0  0  0  0  0  0  0  0  0
   -1.0205   -0.3814    0.0098 H   0  0  0  0  0  0  0  0  0  0  0  0
   -0.2569   -2.2686    0.4817 H   0  0  0  0  0  0  0  0  0  0  0  0
   -0.0640   -4.7007    0.1876 H   0  0  0  0  0  0  0  0  0  0  0  0
    2.0258   -4.1267   -3.4838 H   0  0  0  0  0  0  0  0  0  0  0  0
    1.3655    2.5399   -2.4783 H   0  0  0  0  0  0  0  0  0  0  0  0
    1.0274    4.1142   -5.0288 H   0  0  0  0  0  0  0  0  0  0  0  0
   -0.1943    3.6710   -3.7956 H   0  0  0  0  0  0  0  0  0  0  0  0
    0.6955    6.2140   -3.8978 H   0  0  0  0  0  0  0  0  0  0  0  0
    0.5232    5.4195   -2.2979 H   0  0  0  0  0  0  0  0  0  0  0  0
    3.0582    5.7588   -3.9934 H   0  0  0  0  0  0  0  0  0  0  0  0
    2.8301    6.1204   -2.2535 H   0  0  0  0  0  0  0  0  0  0  0  0
    3.0162    3.8777   -1.6363 H   0  0  0  0  0  0  0  0  0  0  0  0
    3.9112    3.7421   -3.1763 H   0  0  0  0  0  0  0  0  0  0  0  0
    3.4286    1.2691   -8.1844 H   0  0  0  0  0  0  0  0  0  0  0  0
    4.7795    2.1681   -7.4529 H   0  0  0  0  0  0  0  0  0  0  0  0
    4.7653    0.3888   -7.4057 H   0  0  0  0  0  0  0  0  0  0  0  0
   -1.6048   -8.2661   -2.1112 H   0  0  0  0  0  0  0  0  0  0  0  0
   -1.3564   -6.9431   -0.9414 H   0  0  0  0  0  0  0  0  0  0  0  0
   -3.5544   -6.7881   -2.1788 H   0  0  0  0  0  0  0  0  0  0  0  0
   -2.5100   -5.3646   -2.4086 H   0  0  0  0  0  0  0  0  0  0  0  0
   -1.4972   -6.2446   -5.7813 H   0  0  0  0  0  0  0  0  0  0  0  0
   -1.3342   -5.0540   -4.4676 H   0  0  0  0  0  0  0  0  0  0  0  0
    0.7018   -6.3888   -4.5520 H   0  0  0  0  0  0  0  0  0  0  0  0
   -0.2441   -7.8997   -4.4981 H   0  0  0  0  0  0  0  0  0  0  0  0
   -4.7264   -6.4118   -4.1155 H   0  0  0  0  0  0  0  0  0  0  0  0
   -3.7920   -4.9889   -4.6357 H   0  0  0  0  0  0  0  0  0  0  0  0
   -4.8072   -6.0413   -6.5991 H   0  0  0  0  0  0  0  0  0  0  0  0
   -3.0442   -6.2793   -6.6574 H   0  0  0  0  0  0  0  0  0  0  0  0
   -4.2306   -8.3136   -7.0574 H   0  0  0  0  0  0  0  0  0  0  0  0
    2.6720   -2.9268   -4.6721 H   0  0  0  0  0  0  0  0  0  0  0  0
  1  2  1  0  0  0  0
  1 38  1  0  0  0  0
  1 39  1  0  0  0  0
  1 40  1  0  0  0  0
  2  3  1  0  0  0  0
  2 41  1  0  0  0  0
  2 42  1  0  0  0  0
  3  4  1  0  0  0  0
  4  9  2  0  0  0  0
  4  5  1  0  0  0  0
  5  6  2  0  0  0  0
  5 43  1  0  0  0  0
  6  7  1  0  0  0  0
  6 44  1  0  0  0  0
  7  8  2  0  0  0  0
  7 26  1  0  0  0  0
  8  9  1  0  0  0  0
  8 45  1  0  0  0  0
  9 10  1  0  0  0  0
 10 15  1  0  0  0  0
 10 11  2  0  0  0  0
 11 12  1  0  0  0  0
 12 19  1  0  0  0  0
 12 13  2  0  0  0  0
 13 14  1  0  0  0  0
 13 17  1  0  0  0  0
 14 15  1  0  0  0  0
 14 16  2  0  0  0  0
 15 71  1  0  0  0  0
 17 18  1  0  0  0  0
 17 25  1  0  0  0  0
 18 19  2  0  0  0  0
 19 20  1  0  0  0  0
 20 24  1  0  0  0  0
 20 21  1  0  0  0  0
 20 46  1  0  0  0  0
 21 22  1  0  0  0  0
 21 47  1  0  0  0  0
 21 48  1  0  0  0  0
 22 23  1  0  0  0  0
 22 49  1  0  0  0  0
 22 50  1  0  0  0  0
 23 24  1  0  0  0  0
 23 51  1  0  0  0  0
 23 52  1  0  0  0  0
 24 53  1  0  0  0  0
 24 54  1  0  0  0  0
 25 55  1  0  0  0  0
 25 56  1  0  0  0  0
 25 57  1  0  0  0  0
 26 27  2  0  0  0  0
 26 28  2  0  0  0  0
 26 29  1  0  0  0  0
 29 34  1  0  0  0  0
 29 30  1  0  0  0  0
 30 31  1  0  0  0  0
 30 58  1  0  0  0  0
 30 59  1  0  0  0  0
 31 32  1  0  0  0  0
 31 60  1  0  0  0  0
 31 61  1  0  0  0  0
 32 33  1  0  0  0  0
 32 35  1  0  0  0  0
 33 34  1  0  0  0  0
 33 62  1  0  0  0  0
 33 63  1  0  0  0  0
 34 64  1  0  0  0  0
 34 65  1  0  0  0  0
 35 36  1  0  0  0  0
 35 66  1  0  0  0  0
 35 67  1  0  0  0  0
 36 37  1  0  0  0  0
 36 68  1  0  0  0  0
 36 69  1  0  0  0  0
 37 70  1  0  0  0  0
M  END
$$$$
CHEMBL434135
  -OEChem-07121202283D

 71 75  0     0  0  0  0  0  0999 V2000
   -0.0187    1.5258    0.0104 C   0  0  0  0  0  0  0  0  0  0  0  0
    0.0021   -0.0041    0.0020 C   0  0  0  0  0  0  0  0  0  0  0  0
    0.6709   -0.4649   -1.1737 O   0  0  0  0  0  0  0  0  0  0  0  0
    0.7766   -1.8079   -1.3359 C   0  0  0  0  0  0  0  0  0  0  0  0
    0.2435   -2.6680   -0.3877 C   0  0  0  0  0  0  0  0  0  0  0  0
    0.3518   -4.0345   -0.5540 C   0  0  0  0  0  0  0  0  0  0  0  0
    0.9920   -4.5566   -1.6661 C   0  0  0  0  0  0  0  0  0  0  0  0
    1.5275   -3.7166   -2.6182 C   0  0  0  0  0  0  0  0  0  0  0  0
    1.4200   -2.3321   -2.4653 C   0  0  0  0  0  0  0  0  0  0  0  0
    1.9856   -1.4270   -3.4837 C   0  0  0  0  0  0  0  0  0  0  0  0
    2.5985   -1.9682   -4.5701 N   0  0  0  0  0  0  0  0  0  0  0  0
    3.1408   -1.1530   -5.5459 C   0  0  0  0  0  0  0  0  0  0  0  0
    3.0438    0.2279   -5.3893 C   0  0  0  0  0  0  0  0  0  0  0  0
    2.3710    0.7459   -4.1967 C   0  0  0  0  0  0  0  0  0  0  0  0
    1.8724   -0.1278   -3.3074 N   0  0  0  0  0  0  0  0  0  0  0  0
    2.2622    1.9484   -4.0161 O   0  0  0  0  0  0  0  0  0  0  0  0
    3.6480    0.7974   -6.4723 N   0  0  0  0  0  0  0  0  0  0  0  0
    4.1160   -0.2376   -7.2940 N   0  0  0  0  0  0  0  0  0  0  0  0
    3.8171   -1.3880   -6.7480 C   0  0  0  0  0  0  0  0  0  0  0  0
    4.1476   -2.7429   -7.3190 C   0  0  0  0  0  0  0  0  0  0  0  0
    5.6693   -2.8661   -7.5405 C   0  0  0  0  0  0  0  0  0  0  0  0
    5.7975   -3.6777   -8.8535 C   0  0  0  0  0  0  0  0  0  0  0  0
    4.6313   -3.1267   -9.7111 C   0  0  0  0  0  0  0  0  0  0  0  0
    3.4877   -2.9086   -8.6991 C   0  0  0  0  0  0  0  0  0  0  0  0
    3.7826    2.2332   -6.7305 C   0  0  0  0  0  0  0  0  0  0  0  0
    1.1225   -6.3026   -1.8638 S   0  0  0  0  0  0  0  0  0  0  0  0
    2.2415   -6.5331   -2.7087 O   0  0  0  0  0  0  0  0  0  0  0  0
    1.0204   -6.8673   -0.5638 O   0  0  0  0  0  0  0  0  0  0  0  0
   -0.2150   -6.8017   -2.7030 N   0  0  0  0  0  0  0  0  0  0  0  0
   -1.4456   -7.1928   -1.9988 C   0  0  0  0  0  0  0  0  0  0  0  0
   -2.6224   -6.4278   -2.6137 C   0  0  0  0  0  0  0  0  0  0  0  0
   -2.6408   -6.6489   -4.0659 N   0  0  0  0  0  0  0  0  0  0  0  0
   -1.4295   -6.1136   -4.7017 C   0  0  0  0  0  0  0  0  0  0  0  0
   -0.2058   -6.8599   -4.1726 C   0  0  0  0  0  0  0  0  0  0  0  0
   -3.8503   -6.0748   -4.6705 C   0  0  0  0  0  0  0  0  0  0  0  0
   -3.9605   -6.5346   -6.1256 C   0  0  0  0  0  0  0  0  0  0  0  0
   -4.1536   -7.9500   -6.1646 O   0  0  0  0  0  0  0  0  0  0  0  0
    1.0039    1.9031    0.0027 H   0  0  0  0  0  0  0  0  0  0  0  0
   -0.5459    1.8868   -0.8726 H   0  0  0  0  0  0  0  0  0  0  0  0
   -0.5289    1.8773    0.9072 H   0  0  0  0  0  0  0  0  0  0  0  0
    0.5293   -0.3651    0.8851 H   0  0  0  0  0  0  0  0  0  0  0  0
   -1.0205   -0.3814    0.0098 H   0  0  0  0  0  0  0  0  0  0  0  0
   -0.2568   -2.2685    0.4821 H   0  0  0  0  0  0  0  0  0  0  0  0
   -0.0648   -4.7002    0.1874 H   0  0  0  0  0  0  0  0  0  0  0  0
    2.0260   -4.1280   -3.4835 H   0  0  0  0  0  0  0  0  0  0  0  0
    3.8032   -3.5264   -6.6439 H   0  0  0  0  0  0  0  0  0  0  0  0
    6.1191   -1.8800   -7.6561 H   0  0  0  0  0  0  0  0  0  0  0  0
    6.1330   -3.4033   -6.7132 H   0  0  0  0  0  0  0  0  0  0  0  0
    6.7561   -3.4843   -9.3351 H   0  0  0  0  0  0  0  0  0  0  0  0
    5.6674   -4.7431   -8.6634 H   0  0  0  0  0  0  0  0  0  0  0  0
    4.9134   -2.1827  -10.1773 H   0  0  0  0  0  0  0  0  0  0  0  0
    4.3375   -3.8541  -10.4679 H   0  0  0  0  0  0  0  0  0  0  0  0
    2.8236   -3.7730   -8.6941 H   0  0  0  0  0  0  0  0  0  0  0  0
    2.9283   -2.0090   -8.9559 H   0  0  0  0  0  0  0  0  0  0  0  0
    4.7120    2.5958   -6.2913 H   0  0  0  0  0  0  0  0  0  0  0  0
    3.7961    2.4092   -7.8061 H   0  0  0  0  0  0  0  0  0  0  0  0
    2.9399    2.7628   -6.2862 H   0  0  0  0  0  0  0  0  0  0  0  0
   -1.6069   -8.2649   -2.1114 H   0  0  0  0  0  0  0  0  0  0  0  0
   -1.3580   -6.9419   -0.9417 H   0  0  0  0  0  0  0  0  0  0  0  0
   -3.5558   -6.7860   -2.1794 H   0  0  0  0  0  0  0  0  0  0  0  0
   -2.5107   -5.3630   -2.4093 H   0  0  0  0  0  0  0  0  0  0  0  0
   -1.4978   -6.2439   -5.7818 H   0  0  0  0  0  0  0  0  0  0  0  0
   -1.3344   -5.0532   -4.4682 H   0  0  0  0  0  0  0  0  0  0  0  0
    0.7010   -6.3890   -4.5521 H   0  0  0  0  0  0  0  0  0  0  0  0
   -0.2457   -7.8994   -4.4982 H   0  0  0  0  0  0  0  0  0  0  0  0
   -4.7273   -6.4093   -4.1163 H   0  0  0  0  0  0  0  0  0  0  0  0
   -3.7922   -4.9869   -4.6366 H   0  0  0  0  0  0  0  0  0  0  0  0
   -4.8076   -6.0392   -6.6000 H   0  0  0  0  0  0  0  0  0  0  0  0
   -3.0447   -6.2780   -6.6581 H   0  0  0  0  0  0  0  0  0  0  0  0
   -4.2320   -8.3117   -7.0580 H   0  0  0  0  0  0  0  0  0  0  0  0
    2.6558   -2.9323   -4.6608 H   0  0  0  0  0  0  0  0  0  0  0  0
  1  2  1  0  0  0  0
  1 38  1  0  0  0  0
  1 39  1  0  0  0  0
  1 40  1  0  0  0  0
  2  3  1  0  0  0  0
  2 41  1  0  0  0  0
  2 42  1  0  0  0  0
  3  4  1  0  0  0  0
  4  9  2  0  0  0  0
  4  5  1  0  0  0  0
  5  6  2  0  0  0  0
  5 43  1  0  0  0  0
  6  7  1  0  0  0  0
  6 44  1  0  0  0  0
  7  8  2  0  0  0  0
  7 26  1  0  0  0  0
  8  9  1  0  0  0  0
  8 45  1  0  0  0  0
  9 10  1  0  0  0  0
 10 15  2  0  0  0  0
 10 11  1  0  0  0  0
 11 12  1  0  0  0  0
 11 71  1  0  0  0  0
 12 19  1  0  0  0  0
 12 13  2  0  0  0  0
 13 14  1  0  0  0  0
 13 17  1  0  0  0  0
 14 15  1  0  0  0  0
 14 16  2  0  0  0  0
 17 18  1  0  0  0  0
 17 25  1  0  0  0  0
 18 19  2  0  0  0  0
 19 20  1  0  0  0  0
 20 24  1  0  0  0  0
 20 21  1  0  0  0  0
 20 46  1  0  0  0  0
 21 22  1  0  0  0  0
 21 47  1  0  0  0  0
 21 48  1  0  0  0  0
 22 23  1  0  0  0  0
 22 49  1  0  0  0  0
 22 50  1  0  0  0  0
 23 24  1  0  0  0  0
 23 51  1  0  0  0  0
 23 52  1  0  0  0  0
 24 53  1  0  0  0  0
 24 54  1  0  0  0  0
 25 55  1  0  0  0  0
 25 56  1  0  0  0  0
 25 57  1  0  0  0  0
 26 27  2  0  0  0  0
 26 28  2  0  0  0  0
 26 29  1  0  0  0  0
 29 34  1  0  0  0  0
 29 30  1  0  0  0  0
 30 31  1  0  0  0  0
 30 58  1  0  0  0  0
 30 59  1  0  0  0  0
 31 32  1  0  0  0  0
 31 60  1  0  0  0  0
 31 61  1  0  0  0  0
 32 33  1  0  0  0  0
 32 35  1  0  0  0  0
 33 34  1  0  0  0  0
 33 62  1  0  0  0  0
 33 63  1  0  0  0  0
 34 64  1  0  0  0  0
 34 65  1  0  0  0  0
 35 36  1  0  0  0  0
 35 66  1  0  0  0  0
 35 67  1  0  0  0  0
 36 37  1  0  0  0  0
 36 68  1  0  0  0  0
 36 69  1  0  0  0  0
 37 70  1  0  0  0  0
M  END
$$$$
CHEMBL434135
  -OEChem-07121202283D

 70 74  0     0  0  0  0  0  0999 V2000
   -0.0187    1.5258    0.0104 C   0  0  0  0  0  0  0  0  0  0  0  0
    0.0021   -0.0041    0.0020 C   0  0  0  0  0  0  0  0  0  0  0  0
   -1.3386   -0.4987    0.0122 O   0  0  0  0  0  0  0  0  0  0  0  0
   -1.4982   -1.8471    0.0064 C   0  0  0  0  0  0  0  0  0  0  0  0
   -0.3893   -2.6790   -0.0029 C   0  0  0  0  0  0  0  0  0  0  0  0
   -0.5531   -4.0506   -0.0087 C   0  0  0  0  0  0  0  0  0  0  0  0
   -1.8225   -4.6028   -0.0053 C   0  0  0  0  0  0  0  0  0  0  0  0
   -2.9351   -3.7874    0.0039 C   0  0  0  0  0  0  0  0  0  0  0  0
   -2.7819   -2.4020    0.0157 C   0  0  0  0  0  0  0  0  0  0  0  0
   -3.9737   -1.5213    0.0318 C   0  0  0  0  0  0  0  0  0  0  0  0
   -5.1742   -2.0732    0.0458 N   0  0  0  0  0  0  0  0  0  0  0  0
   -6.2713   -1.3085    0.0610 C   0  0  0  0  0  0  0  0  0  0  0  0
   -6.1235    0.0915    0.0618 C   0  0  0  0  0  0  0  0  0  0  0  0
   -4.8296    0.6278    0.0471 C   0  0  0  0  0  0  0  0  0  0  0  0
   -3.7972   -0.2024    0.0372 N   0  0  0  0  0  0  0  0  0  0  0  0
   -4.6376    1.9689    0.0469 O   0  5  0  0  0  0  0  0  0  0  0  0
   -7.3860    0.6213    0.0782 N   0  0  0  0  0  0  0  0  0  0  0  0
   -8.3008   -0.4398    0.0873 N   0  0  0  0  0  0  0  0  0  0  0  0
   -7.6581   -1.5736    0.0774 C   0  0  0  0  0  0  0  0  0  0  0  0
   -8.2906   -2.9415    0.0829 C   0  0  0  0  0  0  0  0  0  0  0  0
   -9.2403   -3.0895   -1.1237 C   0  0  0  0  0  0  0  0  0  0  0  0
  -10.4252   -3.9223   -0.5746 C   0  0  0  0  0  0  0  0  0  0  0  0
  -10.5962   -3.3678    0.8615 C   0  0  0  0  0  0  0  0  0  0  0  0
   -9.1527   -3.1185    1.3452 C   0  0  0  0  0  0  0  0  0  0  0  0
   -7.7213    2.0474    0.0850 C   0  0  0  0  0  0  0  0  0  0  0  0
   -2.0178   -6.3540   -0.0135 S   0  0  0  0  0  0  0  0  0  0  0  0
   -3.3032   -6.6167   -0.5593 O   0  0  0  0  0  0  0  0  0  0  0  0
   -0.8279   -6.8927   -0.5730 O   0  0  0  0  0  0  0  0  0  0  0  0
   -2.0643   -6.8488    1.5662 N   0  0  0  0  0  0  0  0  0  0  0  0
   -0.8304   -7.2084    2.2812 C   0  0  0  0  0  0  0  0  0  0  0  0
   -0.7926   -6.4377    3.6051 C   0  0  0  0  0  0  0  0  0  0  0  0
   -2.0356   -6.6854    4.3478 N   0  0  0  0  0  0  0  0  0  0  0  0
   -3.2041   -6.1801    3.6149 C   0  0  0  0  0  0  0  0  0  0  0  0
   -3.3400   -6.9344    2.2932 C   0  0  0  0  0  0  0  0  0  0  0  0
   -1.9681   -6.1049    5.6956 C   0  0  0  0  0  0  0  0  0  0  0  0
   -3.1622   -6.5900    6.5202 C   0  0  0  0  0  0  0  0  0  0  0  0
   -3.0662   -8.0029    6.7118 O   0  0  0  0  0  0  0  0  0  0  0  0
    1.0039    1.9031    0.0027 H   0  0  0  0  0  0  0  0  0  0  0  0
   -0.5459    1.8868   -0.8726 H   0  0  0  0  0  0  0  0  0  0  0  0
   -0.5289    1.8773    0.9072 H   0  0  0  0  0  0  0  0  0  0  0  0
    0.5123   -0.3556   -0.8948 H   0  0  0  0  0  0  0  0  0  0  0  0
    0.5293   -0.3651    0.8851 H   0  0  0  0  0  0  0  0  0  0  0  0
    0.6037   -2.2543   -0.0059 H   0  0  0  0  0  0  0  0  0  0  0  0
    0.3134   -4.6953   -0.0164 H   0  0  0  0  0  0  0  0  0  0  0  0
   -3.9238   -4.2219    0.0061 H   0  0  0  0  0  0  0  0  0  0  0  0
   -7.5182   -3.7098    0.0475 H   0  0  0  0  0  0  0  0  0  0  0  0
   -9.5849   -2.1116   -1.4601 H   0  0  0  0  0  0  0  0  0  0  0  0
   -8.7448   -3.6207   -1.9363 H   0  0  0  0  0  0  0  0  0  0  0  0
  -11.3250   -3.7497   -1.1650 H   0  0  0  0  0  0  0  0  0  0  0  0
  -10.1742   -4.9828   -0.5519 H   0  0  0  0  0  0  0  0  0  0  0  0
  -11.1597   -2.4349    0.8457 H   0  0  0  0  0  0  0  0  0  0  0  0
  -11.0901   -4.1022    1.4977 H   0  0  0  0  0  0  0  0  0  0  0  0
   -8.7992   -3.9732    1.9219 H   0  0  0  0  0  0  0  0  0  0  0  0
   -9.1136   -2.2150    1.9537 H   0  0  0  0  0  0  0  0  0  0  0  0
   -7.8170    2.4030   -0.9409 H   0  0  0  0  0  0  0  0  0  0  0  0
   -8.6645    2.1963    0.6106 H   0  0  0  0  0  0  0  0  0  0  0  0
   -6.9320    2.6038    0.5903 H   0  0  0  0  0  0  0  0  0  0  0  0
   -0.8220   -8.2799    2.4810 H   0  0  0  0  0  0  0  0  0  0  0  0
    0.0353   -6.9392    1.6760 H   0  0  0  0  0  0  0  0  0  0  0  0
    0.0583   -6.7739    4.1976 H   0  0  0  0  0  0  0  0  0  0  0  0
   -0.6965   -5.3710    3.4024 H   0  0  0  0  0  0  0  0  0  0  0  0
   -4.1020   -6.3295    4.2144 H   0  0  0  0  0  0  0  0  0  0  0  0
   -3.0744   -5.1170    3.4120 H   0  0  0  0  0  0  0  0  0  0  0  0
   -4.1328   -6.4841    1.6959 H   0  0  0  0  0  0  0  0  0  0  0  0
   -3.5775   -7.9791    2.4941 H   0  0  0  0  0  0  0  0  0  0  0  0
   -1.0422   -6.4160    6.1793 H   0  0  0  0  0  0  0  0  0  0  0  0
   -1.9934   -5.0176    5.6245 H   0  0  0  0  0  0  0  0  0  0  0  0
   -3.1612   -6.0910    7.4892 H   0  0  0  0  0  0  0  0  0  0  0  0
   -4.0869   -6.3570    5.9924 H   0  0  0  0  0  0  0  0  0  0  0  0
   -3.7920   -8.3800    7.2277 H   0  0  0  0  0  0  0  0  0  0  0  0
  1  2  1  0  0  0  0
  1 38  1  0  0  0  0
  1 39  1  0  0  0  0
  1 40  1  0  0  0  0
  2  3  1  0  0  0  0
  2 41  1  0  0  0  0
  2 42  1  0  0  0  0
  3  4  1  0  0  0  0
  4  9  2  0  0  0  0
  4  5  1  0  0  0  0
  5  6  2  0  0  0  0
  5 43  1  0  0  0  0
  6  7  1  0  0  0  0
  6 44  1  0  0  0  0
  7  8  2  0  0  0  0
  7 26  1  0  0  0  0
  8  9  1  0  0  0  0
  8 45  1  0  0  0  0
  9 10  1  0  0  0  0
 10 15  2  0  0  0  0
 10 11  1  0  0  0  0
 11 12  2  0  0  0  0
 12 19  1  0  0  0  0
 12 13  1  0  0  0  0
 13 14  2  0  0  0  0
 13 17  1  0  0  0  0
 14 15  1  0  0  0  0
 14 16  1  0  0  0  0
 17 18  1  0  0  0  0
 17 25  1  0  0  0  0
 18 19  2  0  0  0  0
 19 20  1  0  0  0  0
 20 24  1  0  0  0  0
 20 21  1  0  0  0  0
 20 46  1  0  0  0  0
 21 22  1  0  0  0  0
 21 47  1  0  0  0  0
 21 48  1  0  0  0  0
 22 23  1  0  0  0  0
 22 49  1  0  0  0  0
 22 50  1  0  0  0  0
 23 24  1  0  0  0  0
 23 51  1  0  0  0  0
 23 52  1  0  0  0  0
 24 53  1  0  0  0  0
 24 54  1  0  0  0  0
 25 55  1  0  0  0  0
 25 56  1  0  0  0  0
 25 57  1  0  0  0  0
 26 27  2  0  0  0  0
 26 28  2  0  0  0  0
 26 29  1  0  0  0  0
 29 34  1  0  0  0  0
 29 30  1  0  0  0  0
 30 31  1  0  0  0  0
 30 58  1  0  0  0  0
 30 59  1  0  0  0  0
 31 32  1  0  0  0  0
 31 60  1  0  0  0  0
 31 61  1  0  0  0  0
 32 33  1  0  0  0  0
 32 35  1  0  0  0  0
 33 34  1  0  0  0  0
 33 62  1  0  0  0  0
 33 63  1  0  0  0  0
 34 64  1  0  0  0  0
 34 65  1  0  0  0  0
 35 36  1  0  0  0  0
 35 66  1  0  0  0  0
 35 67  1  0  0  0  0
 36 37  1  0  0  0  0
 36 68  1  0  0  0  0
 36 69  1  0  0  0  0
 37 70  1  0  0  0  0
M  CHG  1  16  -1
M  END
$$$$
CHEMBL304161
  -OEChem-07121202283D

 57 62  0     0  0  0  0  0  0999 V2000
    0.4327    1.9460   -0.6519 C   0  0  0  0  0  0  0  0  0  0  0  0
    0.4391    0.4930   -0.4650 N   0  0  0  0  0  0  0  0  0  0  0  0
   -0.0440   -0.2995   -1.4380 C   0  0  0  0  0  0  0  0  0  0  0  0
   -0.4823    0.1916   -2.4630 O   0  0  0  0  0  0  0  0  0  0  0  0
   -0.0422   -1.6998   -1.2707 C   0  0  0  0  0  0  0  0  0  0  0  0
    0.4628   -2.2451   -0.0969 C   0  0  0  0  0  0  0  0  0  0  0  0
    0.3516   -3.5708   -0.1881 N   0  0  0  0  0  0  0  0  0  0  0  0
   -0.1920   -3.8959   -1.3441 C   0  0  0  0  0  0  0  0  0  0  0  0
   -0.4552   -2.7634   -2.0517 N   0  0  0  0  0  0  0  0  0  0  0  0
   -1.0598   -2.6861   -3.3838 C   0  0  0  0  0  0  0  0  0  0  0  0
   -2.5589   -2.7800   -3.2613 C   0  0  0  0  0  0  0  0  0  0  0  0
   -3.1872   -4.0049   -3.3865 C   0  0  0  0  0  0  0  0  0  0  0  0
   -4.5623   -4.0911   -3.2741 C   0  0  0  0  0  0  0  0  0  0  0  0
   -5.3090   -2.9524   -3.0360 C   0  0  0  0  0  0  0  0  0  0  0  0
   -4.6806   -1.7276   -2.9098 C   0  0  0  0  0  0  0  0  0  0  0  0
   -3.3051   -1.6421   -3.0180 C   0  0  0  0  0  0  0  0  0  0  0  0
   -0.4715   -5.2739   -1.8005 C   0  0  0  0  0  0  0  0  0  0  0  0
   -0.3269   -5.6090   -3.1477 C   0  0  0  0  0  0  0  0  0  0  0  0
   -0.5889   -6.8970   -3.5669 C   0  0  0  0  0  0  0  0  0  0  0  0
   -0.9946   -7.8555   -2.6553 C   0  0  0  0  0  0  0  0  0  0  0  0
   -1.1404   -7.5298   -1.3185 C   0  0  0  0  0  0  0  0  0  0  0  0
   -0.8757   -6.2471   -0.8850 C   0  0  0  0  0  0  0  0  0  0  0  0
    0.9539   -1.4000    0.8878 N   0  0  0  0  0  0  0  0  0  0  0  0
    0.9481   -0.0395    0.7092 C   0  0  0  0  0  0  0  0  0  0  0  0
    1.4451    0.6127    1.7277 N   0  3  0  0  0  0  0  0  0  0  0  0
    1.8725   -0.3184    2.7649 C   0  0  0  0  0  0  0  0  0  0  0  0
    1.5383   -1.7062    2.2066 C   0  0  0  0  0  0  0  0  0  0  0  0
    3.3739   -0.1839    3.0552 C   0  0  0  0  0  0  0  0  0  0  0  0
    3.4323    0.6926    4.3328 C   0  0  0  0  0  0  0  0  0  0  0  0
    2.2120    0.1955    5.1482 C   0  0  0  0  0  0  0  0  0  0  0  0
    1.1285   -0.0758    4.0813 C   0  0  0  0  0  0  0  0  0  0  0  0
    1.3642    2.2555   -1.1258 H   0  0  0  0  0  0  0  0  0  0  0  0
   -0.4084    2.2271   -1.2857 H   0  0  0  0  0  0  0  0  0  0  0  0
    0.3375    2.4365    0.3169 H   0  0  0  0  0  0  0  0  0  0  0  0
   -0.7921   -1.7379   -3.8500 H   0  0  0  0  0  0  0  0  0  0  0  0
   -0.6932   -3.5090   -3.9975 H   0  0  0  0  0  0  0  0  0  0  0  0
   -2.6039   -4.8946   -3.5726 H   0  0  0  0  0  0  0  0  0  0  0  0
   -5.0533   -5.0480   -3.3727 H   0  0  0  0  0  0  0  0  0  0  0  0
   -6.3834   -3.0196   -2.9488 H   0  0  0  0  0  0  0  0  0  0  0  0
   -5.2640   -0.8379   -2.7241 H   0  0  0  0  0  0  0  0  0  0  0  0
   -2.8138   -0.6858   -2.9157 H   0  0  0  0  0  0  0  0  0  0  0  0
   -0.0109   -4.8616   -3.8604 H   0  0  0  0  0  0  0  0  0  0  0  0
   -0.4773   -7.1576   -4.6090 H   0  0  0  0  0  0  0  0  0  0  0  0
   -1.1988   -8.8622   -2.9887 H   0  0  0  0  0  0  0  0  0  0  0  0
   -1.4578   -8.2825   -0.6120 H   0  0  0  0  0  0  0  0  0  0  0  0
   -0.9852   -5.9953    0.1595 H   0  0  0  0  0  0  0  0  0  0  0  0
    0.8157   -2.2233    2.8379 H   0  0  0  0  0  0  0  0  0  0  0  0
    2.4484   -2.2961    2.0975 H   0  0  0  0  0  0  0  0  0  0  0  0
    3.8160   -1.1624    3.2425 H   0  0  0  0  0  0  0  0  0  0  0  0
    3.8801    0.3130    2.2275 H   0  0  0  0  0  0  0  0  0  0  0  0
    4.3590    0.5170    4.8792 H   0  0  0  0  0  0  0  0  0  0  0  0
    3.3250    1.7479    4.0821 H   0  0  0  0  0  0  0  0  0  0  0  0
    2.4587   -0.7215    5.6832 H   0  0  0  0  0  0  0  0  0  0  0  0
    1.8784    0.9659    5.8434 H   0  0  0  0  0  0  0  0  0  0  0  0
    0.4718    0.7890    3.9863 H   0  0  0  0  0  0  0  0  0  0  0  0
    0.5491   -0.9584    4.3521 H   0  0  0  0  0  0  0  0  0  0  0  0
    1.5193    1.5782    1.7848 H   0  0  0  0  0  0  0  0  0  0  0  0
  1  2  1  0  0  0  0
  1 32  1  0  0  0  0
  1 33  1  0  0  0  0
  1 34  1  0  0  0  0
  2 24  1  0  0  0  0
  2  3  1  0  0  0  0
  3  4  2  0  0  0  0
  3  5  1  0  0  0  0
  5  9  1  0  0  0  0
  5  6  2  0  0  0  0
  6  7  1  0  0  0  0
  6 23  1  0  0  0  0
  7  8  2  0  0  0  0
  8  9  1  0  0  0  0
  8 17  1  0  0  0  0
  9 10  1  0  0  0  0
 10 11  1  0  0  0  0
 10 35  1  0  0  0  0
 10 36  1  0  0  0  0
 11 16  2  0  0  0  0
 11 12  1  0  0  0  0
 12 13  2  0  0  0  0
 12 37  1  0  0  0  0
 13 14  1  0  0  0  0
 13 38  1  0  0  0  0
 14 15  2  0  0  0  0
 14 39  1  0  0  0  0
 15 16  1  0  0  0  0
 15 40  1  0  0  0  0
 16 41  1  0  0  0  0
 17 22  2  0  0  0  0
 17 18  1  0  0  0  0
 18 19  2  0  0  0  0
 18 42  1  0  0  0  0
 19 20  1  0  0  0  0
 19 43  1  0  0  0  0
 20 21  2  0  0  0  0
 20 44  1  0  0  0  0
 21 22  1  0  0  0  0
 21 45  1  0  0  0  0
 22 46  1  0  0  0  0
 23 27  1  0  0  0  0
 23 24  1  0  0  0  0
 24 25  2  0  0  0  0
 25 26  1  0  0  0  0
 25 57  1  0  0  0  0
 26 31  1  0  0  0  0
 26 27  1  0  0  0  0
 26 28  1  0  0  0  0
 27 47  1  0  0  0  0
 27 48  1  0  0  0  0
 28 29  1  0  0  0  0
 28 49  1  0  0  0  0
 28 50  1  0  0  0  0
 29 30  1  0  0  0  0
 29 51  1  0  0  0  0
 29 52  1  0  0  0  0
 30 31  1  0  0  0  0
 30 53  1  0  0  0  0
 30 54  1  0  0  0  0
 31 55  1  0  0  0  0
 31 56  1  0  0  0  0
M  CHG  1  25   1
M  END
$$$$
CHEMBL385683
  -OEChem-07121202283D

 51 56  0     0  0  0  0  0  0999 V2000
   -0.0184    1.5028    0.0103 C   0  0  0  0  0  0  0  0  0  0  0  0
    0.0021   -0.0041    0.0020 C   0  0  0  0  0  0  0  0  0  0  0  0
   -1.2118   -0.7183    0.0040 C   0  0  0  0  0  0  0  0  0  0  0  0
   -2.5168   -0.0582    0.0134 C   0  0  0  0  0  0  0  0  0  0  0  0
   -2.9380    1.2501    0.0219 C   0  0  0  0  0  0  0  0  0  0  0  0
   -4.3390    1.2424    0.0278 C   0  0  0  0  0  0  0  0  0  0  0  0
   -4.7543   -0.0112    0.0231 N   0  0  0  0  0  0  0  0  0  0  0  0
   -3.6395   -0.8571    0.0140 N   0  0  0  0  0  0  0  0  0  0  0  0
   -3.5024   -2.2151    0.0064 C   0  0  0  0  0  0  0  0  0  0  0  0
   -2.3459   -2.8078   -0.0011 N   0  0  0  0  0  0  0  0  0  0  0  0
   -1.1897   -2.1243   -0.0038 C   0  0  0  0  0  0  0  0  0  0  0  0
    0.1123   -2.7930   -0.0132 C   0  0  0  0  0  0  0  0  0  0  0  0
    0.1898   -4.0098   -0.0206 O   0  0  0  0  0  0  0  0  0  0  0  0
    1.2260   -2.0282   -0.0140 N   0  0  0  0  0  0  0  0  0  0  0  0
    1.1425   -0.6340   -0.0123 N   0  0  0  0  0  0  0  0  0  0  0  0
    2.5422   -2.6715   -0.0233 C   0  0  0  0  0  0  0  0  0  0  0  0
    2.9872   -2.8843   -1.4473 C   0  0  0  0  0  0  0  0  0  0  0  0
    2.6598   -4.0558   -2.1045 C   0  0  0  0  0  0  0  0  0  0  0  0
    3.0653   -4.2554   -3.4109 C   0  0  0  0  0  0  0  0  0  0  0  0
    3.8018   -3.2811   -4.0649 C   0  0  0  0  0  0  0  0  0  0  0  0
    4.1316   -2.1011   -3.4029 C   0  0  0  0  0  0  0  0  0  0  0  0
    3.7169   -1.9054   -2.0955 C   0  0  0  0  0  0  0  0  0  0  0  0
    4.8520   -1.3113   -4.2518 O   0  0  0  0  0  0  0  0  0  0  0  0
    5.3084   -2.1883   -5.2986 C   0  0  0  0  0  0  0  0  0  0  0  0
    4.3155   -3.2307   -5.3286 O   0  0  0  0  0  0  0  0  0  0  0  0
   -4.7471   -3.0647    0.0073 C   0  0  0  0  0  0  0  0  0  0  0  0
   -5.2112    2.4432    0.0385 C   0  0  0  0  0  0  0  0  0  0  0  0
   -4.6470    3.7171    0.0376 C   0  0  0  0  0  0  0  0  0  0  0  0
   -5.4628    4.8304    0.0476 C   0  0  0  0  0  0  0  0  0  0  0  0
   -6.8380    4.6831    0.0589 C   0  0  0  0  0  0  0  0  0  0  0  0
   -7.4035    3.4207    0.0602 C   0  0  0  0  0  0  0  0  0  0  0  0
   -6.5971    2.3006    0.0436 C   0  0  0  0  0  0  0  0  0  0  0  0
    1.0042    1.8801    0.0026 H   0  0  0  0  0  0  0  0  0  0  0  0
   -0.5455    1.8639   -0.8728 H   0  0  0  0  0  0  0  0  0  0  0  0
   -0.5286    1.8543    0.9071 H   0  0  0  0  0  0  0  0  0  0  0  0
   -2.3045    2.1247    0.0240 H   0  0  0  0  0  0  0  0  0  0  0  0
    3.2617   -2.0342    0.4908 H   0  0  0  0  0  0  0  0  0  0  0  0
    2.4801   -3.6334    0.4856 H   0  0  0  0  0  0  0  0  0  0  0  0
    2.0864   -4.8167   -1.5960 H   0  0  0  0  0  0  0  0  0  0  0  0
    2.8082   -5.1715   -3.9218 H   0  0  0  0  0  0  0  0  0  0  0  0
    3.9674   -0.9893   -1.5811 H   0  0  0  0  0  0  0  0  0  0  0  0
    5.3400   -1.6620   -6.2526 H   0  0  0  0  0  0  0  0  0  0  0  0
    6.2879   -2.5993   -5.0541 H   0  0  0  0  0  0  0  0  0  0  0  0
   -5.0515   -3.2643   -1.0201 H   0  0  0  0  0  0  0  0  0  0  0  0
   -4.5432   -4.0073    0.5155 H   0  0  0  0  0  0  0  0  0  0  0  0
   -5.5467   -2.5372    0.5273 H   0  0  0  0  0  0  0  0  0  0  0  0
   -3.5733    3.8332    0.0296 H   0  0  0  0  0  0  0  0  0  0  0  0
   -5.0265    5.8184    0.0470 H   0  0  0  0  0  0  0  0  0  0  0  0
   -7.4727    5.5569    0.0670 H   0  0  0  0  0  0  0  0  0  0  0  0
   -8.4779    3.3114    0.0697 H   0  0  0  0  0  0  0  0  0  0  0  0
   -7.0396    1.3155    0.0397 H   0  0  0  0  0  0  0  0  0  0  0  0
  1  2  1  0  0  0  0
  1 33  1  0  0  0  0
  1 34  1  0  0  0  0
  1 35  1  0  0  0  0
  2 15  2  0  0  0  0
  2  3  1  0  0  0  0
  3 11  2  0  0  0  0
  3  4  1  0  0  0  0
  4  8  1  0  0  0  0
  4  5  2  0  0  0  0
  5  6  1  0  0  0  0
  5 36  1  0  0  0  0
  6  7  2  0  0  0  0
  6 27  1  0  0  0  0
  7  8  1  0  0  0  0
  8  9  1  0  0  0  0
  9 10  2  0  0  0  0
  9 26  1  0  0  0  0
 10 11  1  0  0  0  0
 11 12  1  0  0  0  0
 12 13  2  0  0  0  0
 12 14  1  0  0  0  0
 14 15  1  0  0  0  0
 14 16  1  0  0  0  0
 16 17  1  0  0  0  0
 16 37  1  0  0  0  0
 16 38  1  0  0  0  0
 17 22  2  0  0  0  0
 17 18  1  0  0  0  0
 18 19  2  0  0  0  0
 18 39  1  0  0  0  0
 19 20  1  0  0  0  0
 19 40  1  0  0  0  0
 20 25  1  0  0  0  0
 20 21  2  0  0  0  0
 21 22  1  0  0  0  0
 21 23  1  0  0  0  0
 22 41  1  0  0  0  0
 23 24  1  0  0  0  0
 24 25  1  0  0  0  0
 24 42  1  0  0  0  0
 24 43  1  0  0  0  0
 26 44  1  0  0  0  0
 26 45  1  0  0  0  0
 26 46  1  0  0  0  0
 27 32  2  0  0  0  0
 27 28  1  0  0  0  0
 28 29  2  0  0  0  0
 28 47  1  0  0  0  0
 29 30  1  0  0  0  0
 29 48  1  0  0  0  0
 30 31  2  0  0  0  0
 30 49  1  0  0  0  0
 31 32  1  0  0  0  0
 31 50  1  0  0  0  0
 32 51  1  0  0  0  0
M  END
$$$$
CHEMBL141703
  -OEChem-07121202283D

 59 64  0     1  0  0  0  0  0999 V2000
    1.1246   -0.7367    0.4969 C   0  0  0  0  0  0  0  0  0  0  0  0
    0.0022   -0.0042    0.0012 O   0  0  0  0  0  0  0  0  0  0  0  0
   -1.2002   -0.6376    0.0092 C   0  0  0  0  0  0  0  0  0  0  0  0
   -1.2987   -1.9353    0.4898 C   0  0  0  0  0  0  0  0  0  0  0  0
   -2.5222   -2.5768    0.4973 C   0  0  0  0  0  0  0  0  0  0  0  0
   -3.6478   -1.9268    0.0260 C   0  0  0  0  0  0  0  0  0  0  0  0
   -3.5522   -0.6336   -0.4539 C   0  0  0  0  0  0  0  0  0  0  0  0
   -2.3322    0.0144   -0.4578 C   0  0  0  0  0  0  0  0  0  0  0  0
   -4.9811   -2.6292    0.0350 C   0  0  2  0  0  0  0  0  0  0  0  0
   -5.7722   -1.9254   -0.2238 H   0  0  0  0  0  0  0  0  0  0  0  0
   -5.2433   -3.2168    1.4031 C   0  0  0  0  0  0  0  0  0  0  0  0
   -5.6492   -4.4894    1.6027 C   0  0  0  0  0  0  0  0  0  0  0  0
   -5.7926   -4.6685    3.0334 C   0  0  0  0  0  0  0  0  0  0  0  0
   -6.1813   -5.7588    3.8179 C   0  0  0  0  0  0  0  0  0  0  0  0
   -6.2041   -5.5679    5.1774 C   0  0  0  0  0  0  0  0  0  0  0  0
   -5.8612   -4.3573    5.7569 C   0  0  0  0  0  0  0  0  0  0  0  0
   -5.4743   -3.2617    5.0047 C   0  0  0  0  0  0  0  0  0  0  0  0
   -5.4413   -3.4263    3.6214 C   0  0  0  0  0  0  0  0  0  0  0  0
   -5.1155   -2.5740    2.6058 N   0  0  0  0  0  0  0  0  0  0  0  0
   -4.8355   -1.6523    2.7190 H   0  0  0  0  0  0  0  0  0  0  0  0
   -5.8875   -5.4964    0.5067 C   0  0  0  0  0  0  0  0  0  0  0  0
   -6.0243   -4.7524   -0.8292 C   0  0  1  0  0  0  0  0  0  0  0  0
   -6.9909   -4.2493   -0.8545 H   0  0  0  0  0  0  0  0  0  0  0  0
   -4.9667   -3.7471   -0.9324 N   0  0  0  0  0  0  0  0  0  0  0  0
   -3.9979   -3.7978   -1.8489 C   0  0  0  0  0  0  0  0  0  0  0  0
   -3.1305   -2.9515   -1.8021 O   0  0  0  0  0  0  0  0  0  0  0  0
   -3.9093   -4.8271   -2.9283 C   0  0  0  0  0  0  0  0  0  0  0  0
   -5.0259   -5.7567   -2.8891 N   0  0  0  0  0  0  0  0  0  0  0  0
   -5.9595   -5.7311   -1.9572 C   0  0  0  0  0  0  0  0  0  0  0  0
   -6.8369   -6.5645   -2.0367 O   0  0  0  0  0  0  0  0  0  0  0  0
   -5.1079   -6.7814   -3.9329 C   0  0  0  0  0  0  0  0  0  0  0  0
   -3.8213   -7.6326   -3.9400 C   0  0  0  0  0  0  0  0  0  0  0  0
   -3.5640   -7.9196   -5.4402 C   0  0  0  0  0  0  0  0  0  0  0  0
   -3.9708   -6.5875   -6.1177 C   0  0  0  0  0  0  0  0  0  0  0  0
   -5.2029   -6.1169   -5.3176 C   0  0  0  0  0  0  0  0  0  0  0  0
    2.0191   -0.1170    0.4345 H   0  0  0  0  0  0  0  0  0  0  0  0
    0.9469   -1.0146    1.5358 H   0  0  0  0  0  0  0  0  0  0  0  0
    1.2639   -1.6371   -0.1014 H   0  0  0  0  0  0  0  0  0  0  0  0
   -0.4196   -2.4437    0.8574 H   0  0  0  0  0  0  0  0  0  0  0  0
   -2.5994   -3.5870    0.8713 H   0  0  0  0  0  0  0  0  0  0  0  0
   -4.4328   -0.1282   -0.8218 H   0  0  0  0  0  0  0  0  0  0  0  0
   -2.2588    1.0261   -0.8287 H   0  0  0  0  0  0  0  0  0  0  0  0
   -6.4512   -6.7062    3.3753 H   0  0  0  0  0  0  0  0  0  0  0  0
   -6.4991   -6.3878    5.8154 H   0  0  0  0  0  0  0  0  0  0  0  0
   -5.8973   -4.2651    6.8323 H   0  0  0  0  0  0  0  0  0  0  0  0
   -5.2104   -2.3227    5.4684 H   0  0  0  0  0  0  0  0  0  0  0  0
   -5.0456   -6.1868    0.4558 H   0  0  0  0  0  0  0  0  0  0  0  0
   -6.8039   -6.0496    0.7121 H   0  0  0  0  0  0  0  0  0  0  0  0
   -3.8997   -4.3256   -3.8960 H   0  0  0  0  0  0  0  0  0  0  0  0
   -2.9800   -5.3846   -2.8107 H   0  0  0  0  0  0  0  0  0  0  0  0
   -5.9765   -7.4177   -3.7637 H   0  0  0  0  0  0  0  0  0  0  0  0
   -2.9907   -7.0721   -3.5109 H   0  0  0  0  0  0  0  0  0  0  0  0
   -3.9768   -8.5635   -3.3947 H   0  0  0  0  0  0  0  0  0  0  0  0
   -2.5106   -8.1369   -5.6168 H   0  0  0  0  0  0  0  0  0  0  0  0
   -4.1924   -8.7386   -5.7901 H   0  0  0  0  0  0  0  0  0  0  0  0
   -3.1644   -5.8583   -6.0403 H   0  0  0  0  0  0  0  0  0  0  0  0
   -4.2354   -6.7557   -7.1617 H   0  0  0  0  0  0  0  0  0  0  0  0
   -6.1173   -6.4314   -5.8207 H   0  0  0  0  0  0  0  0  0  0  0  0
   -5.1881   -5.0320   -5.2129 H   0  0  0  0  0  0  0  0  0  0  0  0
  1  2  1  0  0  0  0
  1 36  1  0  0  0  0
  1 37  1  0  0  0  0
  1 38  1  0  0  0  0
  2  3  1  0  0  0  0
  3  8  2  0  0  0  0
  3  4  1  0  0  0  0
  4  5  2  0  0  0  0
  4 39  1  0  0  0  0
  5  6  1  0  0  0  0
  5 40  1  0  0  0  0
  6  7  2  0  0  0  0
  6  9  1  0  0  0  0
  7  8  1  0  0  0  0
  7 41  1  0  0  0  0
  8 42  1  0  0  0  0
  9 10  1  0  0  0  0
  9 24  1  0  0  0  0
  9 11  1  0  0  0  0
 11 19  1  0  0  0  0
 11 12  2  0  0  0  0
 12 13  1  0  0  0  0
 12 21  1  0  0  0  0
 13 18  2  0  0  0  0
 13 14  1  0  0  0  0
 14 15  2  0  0  0  0
 14 43  1  0  0  0  0
 15 16  1  0  0  0  0
 15 44  1  0  0  0  0
 16 17  2  0  0  0  0
 16 45  1  0  0  0  0
 17 18  1  0  0  0  0
 17 46  1  0  0  0  0
 18 19  1  0  0  0  0
 19 20  1  0  0  0  0
 21 22  1  0  0  0  0
 21 47  1  0  0  0  0
 21 48  1  0  0  0  0
 22 23  1  0  0  0  0
 22 29  1  0  0  0  0
 22 24  1  0  0  0  0
 24 25  1  0  0  0  0
 25 26  2  0  0  0  0
 25 27  1  0  0  0  0
 27 28  1  0  0  0  0
 27 49  1  0  0  0  0
 27 50  1  0  0  0  0
 28 29  1  0  0  0  0
 28 31  1  0  0  0  0
 29 30  2  0  0  0  0
 31 35  1  0  0  0  0
 31 32  1  0  0  0  0
 31 51  1  0  0  0  0
 32 33  1  0  0  0  0
 32 52  1  0  0  0  0
 32 53  1  0  0  0  0
 33 34  1  0  0  0  0
 33 54  1  0  0  0  0
 33 55  1  0  0  0  0
 34 35  1  0  0  0  0
 34 56  1  0  0  0  0
 34 57  1  0  0  0  0
 35 58  1  0  0  0  0
 35 59  1  0  0  0  0
M  END
$$$$
CHEMBL137400
  -OEChem-07121202283D

 50 54  0     0  0  0  0  0  0999 V2000
   -0.0178    1.4608    0.0101 C   0  0  0  0  0  0  0  0  0  0  0  0
    0.0021   -0.0041    0.0020 N   0  0  0  0  0  0  0  0  0  0  0  0
    0.0076   -0.7809   -1.0935 C   0  0  0  0  0  0  0  0  0  0  0  0
    0.0271   -2.0894   -0.6691 C   0  0  0  0  0  0  0  0  0  0  0  0
    0.0345   -2.0757    0.7510 C   0  0  0  0  0  0  0  0  0  0  0  0
    0.0245   -0.8264    1.1354 N   0  0  0  0  0  0  0  0  0  0  0  0
    0.0572   -3.2899    1.4388 N   0  0  0  0  0  0  0  0  0  0  0  0
    0.0697   -3.5532    2.8909 C   0  0  0  0  0  0  0  0  0  0  0  0
    0.1051   -5.0836    2.9618 C   0  0  0  0  0  0  0  0  0  0  0  0
   -1.1143   -5.6218    3.7235 C   0  0  0  0  0  0  0  0  0  0  0  0
   -0.5645   -6.8513    4.4918 C   0  0  0  0  0  0  0  0  0  0  0  0
    0.8553   -6.3910    4.9080 C   0  0  0  0  0  0  0  0  0  0  0  0
    1.3562   -5.5681    3.7005 C   0  0  0  0  0  0  0  0  0  0  0  0
    0.0998   -5.5201    1.5714 N   0  3  0  0  0  0  0  0  0  0  0  0
    0.0730   -4.4859    0.7690 C   0  0  0  0  0  0  0  0  0  0  0  0
    0.0615   -4.5156   -0.6180 N   0  0  0  0  0  0  0  0  0  0  0  0
    0.0406   -3.3899   -1.3531 C   0  0  0  0  0  0  0  0  0  0  0  0
    0.0326   -3.4474   -2.5680 O   0  0  0  0  0  0  0  0  0  0  0  0
    0.0728   -5.8112   -1.3016 C   0  0  0  0  0  0  0  0  0  0  0  0
   -0.0059   -0.3067   -2.5239 C   0  0  0  0  0  0  0  0  0  0  0  0
    1.4103   -0.1294   -3.0077 C   0  0  0  0  0  0  0  0  0  0  0  0
    2.0482    1.0865   -2.8477 C   0  0  0  0  0  0  0  0  0  0  0  0
    3.3473    1.2491   -3.2915 C   0  0  0  0  0  0  0  0  0  0  0  0
    4.0085    0.1957   -3.8949 C   0  0  0  0  0  0  0  0  0  0  0  0
    3.3709   -1.0204   -4.0541 C   0  0  0  0  0  0  0  0  0  0  0  0
    2.0733   -1.1843   -3.6064 C   0  0  0  0  0  0  0  0  0  0  0  0
    1.0048    1.8381    0.0023 H   0  0  0  0  0  0  0  0  0  0  0  0
   -0.5450    1.8219   -0.8730 H   0  0  0  0  0  0  0  0  0  0  0  0
   -0.5280    1.8123    0.9069 H   0  0  0  0  0  0  0  0  0  0  0  0
    0.9594   -3.1251    3.3529 H   0  0  0  0  0  0  0  0  0  0  0  0
   -0.8344   -3.1661    3.3609 H   0  0  0  0  0  0  0  0  0  0  0  0
   -1.4907   -4.8729    4.4203 H   0  0  0  0  0  0  0  0  0  0  0  0
   -1.8965   -5.9247    3.0274 H   0  0  0  0  0  0  0  0  0  0  0  0
   -1.1748   -7.0622    5.3700 H   0  0  0  0  0  0  0  0  0  0  0  0
   -0.5119   -7.7225    3.8388 H   0  0  0  0  0  0  0  0  0  0  0  0
    0.8078   -5.7678    5.8009 H   0  0  0  0  0  0  0  0  0  0  0  0
    1.5014   -7.2525    5.0768 H   0  0  0  0  0  0  0  0  0  0  0  0
    1.9591   -6.1956    3.0441 H   0  0  0  0  0  0  0  0  0  0  0  0
    1.9412   -4.7155    4.0453 H   0  0  0  0  0  0  0  0  0  0  0  0
   -0.9519   -6.1462   -1.4624 H   0  0  0  0  0  0  0  0  0  0  0  0
    0.5771   -5.7106   -2.2627 H   0  0  0  0  0  0  0  0  0  0  0  0
    0.6016   -6.5410   -0.6885 H   0  0  0  0  0  0  0  0  0  0  0  0
   -0.5128   -1.0440   -3.1463 H   0  0  0  0  0  0  0  0  0  0  0  0
   -0.5329    0.6453   -2.5861 H   0  0  0  0  0  0  0  0  0  0  0  0
    1.5316    1.9094   -2.3763 H   0  0  0  0  0  0  0  0  0  0  0  0
    3.8454    2.1992   -3.1671 H   0  0  0  0  0  0  0  0  0  0  0  0
    5.0232    0.3230   -4.2423 H   0  0  0  0  0  0  0  0  0  0  0  0
    3.8874   -1.8433   -4.5258 H   0  0  0  0  0  0  0  0  0  0  0  0
    1.5765   -2.1356   -3.7274 H   0  0  0  0  0  0  0  0  0  0  0  0
    0.1146   -6.4456    1.2816 H   0  0  0  0  0  0  0  0  0  0  0  0
  1  2  1  0  0  0  0
  1 27  1  0  0  0  0
  1 28  1  0  0  0  0
  1 29  1  0  0  0  0
  2  6  1  0  0  0  0
  2  3  1  0  0  0  0
  3  4  2  0  0  0  0
  3 20  1  0  0  0  0
  4 17  1  0  0  0  0
  4  5  1  0  0  0  0
  5  6  2  0  0  0  0
  5  7  1  0  0  0  0
  7 15  1  0  0  0  0
  7  8  1  0  0  0  0
  8  9  1  0  0  0  0
  8 30  1  0  0  0  0
  8 31  1  0  0  0  0
  9 13  1  0  0  0  0
  9 10  1  0  0  0  0
  9 14  1  0  0  0  0
 10 11  1  0  0  0  0
 10 32  1  0  0  0  0
 10 33  1  0  0  0  0
 11 12  1  0  0  0  0
 11 34  1  0  0  0  0
 11 35  1  0  0  0  0
 12 13  1  0  0  0  0
 12 36  1  0  0  0  0
 12 37  1  0  0  0  0
 13 38  1  0  0  0  0
 13 39  1  0  0  0  0
 14 15  2  0  0  0  0
 14 50  1  0  0  0  0
 15 16  1  0  0  0  0
 16 17  1  0  0  0  0
 16 19  1  0  0  0  0
 17 18  2  0  0  0  0
 19 40  1  0  0  0  0
 19 41  1  0  0  0  0
 19 42  1  0  0  0  0
 20 21  1  0  0  0  0
 20 43  1  0  0  0  0
 20 44  1  0  0  0  0
 21 26  2  0  0  0  0
 21 22  1  0  0  0  0
 22 23  2  0  0  0  0
 22 45  1  0  0  0  0
 23 24  1  0  0  0  0
 23 46  1  0  0  0  0
 24 25  2  0  0  0  0
 24 47  1  0  0  0  0
 25 26  1  0  0  0  0
 25 48  1  0  0  0  0
 26 49  1  0  0  0  0
M  CHG  1  14   1
M  END
$$$$
CHEMBL212397
  -OEChem-07121202283D

 47 51  0     0  0  0  0  0  0999 V2000
   -0.0184    1.5028    0.0103 C   0  0  0  0  0  0  0  0  0  0  0  0
    0.0021   -0.0041    0.0020 C   0  0  0  0  0  0  0  0  0  0  0  0
   -1.2118   -0.7183    0.0039 C   0  0  0  0  0  0  0  0  0  0  0  0
   -2.5168   -0.0582    0.0137 C   0  0  0  0  0  0  0  0  0  0  0  0
   -2.9381    1.2501    0.0231 C   0  0  0  0  0  0  0  0  0  0  0  0
   -4.3390    1.2423    0.0295 C   0  0  0  0  0  0  0  0  0  0  0  0
   -4.7543   -0.0112    0.0242 N   0  0  0  0  0  0  0  0  0  0  0  0
   -3.6395   -0.8571    0.0142 N   0  0  0  0  0  0  0  0  0  0  0  0
   -3.5024   -2.2151    0.0058 C   0  0  0  0  0  0  0  0  0  0  0  0
   -2.3459   -2.8078   -0.0029 N   0  0  0  0  0  0  0  0  0  0  0  0
   -1.1897   -2.1243   -0.0043 C   0  0  0  0  0  0  0  0  0  0  0  0
    0.1123   -2.7930   -0.0141 C   0  0  0  0  0  0  0  0  0  0  0  0
    0.1898   -4.0098   -0.0219 O   0  0  0  0  0  0  0  0  0  0  0  0
    1.2260   -2.0282   -0.0148 N   0  0  0  0  0  0  0  0  0  0  0  0
    1.1425   -0.6340   -0.0123 N   0  0  0  0  0  0  0  0  0  0  0  0
    2.5422   -2.6715   -0.0241 C   0  0  0  0  0  0  0  0  0  0  0  0
    2.9873   -2.8843   -1.4480 C   0  0  0  0  0  0  0  0  0  0  0  0
    2.6609   -4.0551   -2.1065 C   0  0  0  0  0  0  0  0  0  0  0  0
    3.0692   -4.2503   -3.4127 C   0  0  0  0  0  0  0  0  0  0  0  0
    3.8035   -3.2745   -4.0605 C   0  0  0  0  0  0  0  0  0  0  0  0
    4.1291   -2.1034   -3.4023 C   0  0  0  0  0  0  0  0  0  0  0  0
    3.7172   -1.9063   -2.0975 C   0  0  0  0  0  0  0  0  0  0  0  0
   -4.7471   -3.0647    0.0071 C   0  0  0  0  0  0  0  0  0  0  0  0
   -5.2112    2.4432    0.0404 C   0  0  0  0  0  0  0  0  0  0  0  0
   -6.5977    2.3127    0.1567 C   0  0  0  0  0  0  0  0  0  0  0  0
   -7.3674    3.4631    0.1619 C   0  0  0  0  0  0  0  0  0  0  0  0
   -6.7453    4.6936    0.0528 C   0  0  0  0  0  0  0  0  0  0  0  0
   -5.4341    4.7852   -0.0561 N   0  0  0  0  0  0  0  0  0  0  0  0
   -4.6606    3.7187   -0.0593 C   0  0  0  0  0  0  0  0  0  0  0  0
    1.0042    1.8801    0.0026 H   0  0  0  0  0  0  0  0  0  0  0  0
   -0.5455    1.8639   -0.8728 H   0  0  0  0  0  0  0  0  0  0  0  0
   -0.5286    1.8543    0.9071 H   0  0  0  0  0  0  0  0  0  0  0  0
   -2.3045    2.1247    0.0256 H   0  0  0  0  0  0  0  0  0  0  0  0
    3.2617   -2.0342    0.4901 H   0  0  0  0  0  0  0  0  0  0  0  0
    2.4801   -3.6334    0.4848 H   0  0  0  0  0  0  0  0  0  0  0  0
    2.0873   -4.8174   -1.6004 H   0  0  0  0  0  0  0  0  0  0  0  0
    2.8148   -5.1653   -3.9270 H   0  0  0  0  0  0  0  0  0  0  0  0
    4.1231   -3.4274   -5.0808 H   0  0  0  0  0  0  0  0  0  0  0  0
    4.7031   -1.3412   -3.9083 H   0  0  0  0  0  0  0  0  0  0  0  0
    3.9684   -0.9898   -1.5845 H   0  0  0  0  0  0  0  0  0  0  0  0
   -5.0523   -3.2637   -1.0202 H   0  0  0  0  0  0  0  0  0  0  0  0
   -4.5429   -4.0075    0.5146 H   0  0  0  0  0  0  0  0  0  0  0  0
   -5.5463   -2.5374    0.5280 H   0  0  0  0  0  0  0  0  0  0  0  0
   -7.0571    1.3388    0.2401 H   0  0  0  0  0  0  0  0  0  0  0  0
   -8.4420    3.4006    0.2498 H   0  0  0  0  0  0  0  0  0  0  0  0
   -7.3426    5.5934    0.0565 H   0  0  0  0  0  0  0  0  0  0  0  0
   -3.5902    3.8343   -0.1449 H   0  0  0  0  0  0  0  0  0  0  0  0
  1  2  1  0  0  0  0
  1 30  1  0  0  0  0
  1 31  1  0  0  0  0
  1 32  1  0  0  0  0
  2 15  2  0  0  0  0
  2  3  1  0  0  0  0
  3 11  2  0  0  0  0
  3  4  1  0  0  0  0
  4  8  1  0  0  0  0
  4  5  2  0  0  0  0
  5  6  1  0  0  0  0
  5 33  1  0  0  0  0
  6  7  2  0  0  0  0
  6 24  1  0  0  0  0
  7  8  1  0  0  0  0
  8  9  1  0  0  0  0
  9 10  2  0  0  0  0
  9 23  1  0  0  0  0
 10 11  1  0  0  0  0
 11 12  1  0  0  0  0
 12 13  2  0  0  0  0
 12 14  1  0  0  0  0
 14 15  1  0  0  0  0
 14 16  1  0  0  0  0
 16 17  1  0  0  0  0
 16 34  1  0  0  0  0
 16 35  1  0  0  0  0
 17 22  2  0  0  0  0
 17 18  1  0  0  0  0
 18 19  2  0  0  0  0
 18 36  1  0  0  0  0
 19 20  1  0  0  0  0
 19 37  1  0  0  0  0
 20 21  2  0  0  0  0
 20 38  1  0  0  0  0
 21 22  1  0  0  0  0
 21 39  1  0  0  0  0
 22 40  1  0  0  0  0
 23 41  1  0  0  0  0
 23 42  1  0  0  0  0
 23 43  1  0  0  0  0
 24 29  2  0  0  0  0
 24 25  1  0  0  0  0
 25 26  2  0  0  0  0
 25 44  1  0  0  0  0
 26 27  1  0  0  0  0
 26 45  1  0  0  0  0
 27 28  2  0  0  0  0
 27 46  1  0  0  0  0
 28 29  1  0  0  0  0
 29 47  1  0  0  0  0
M  END
$$$$
CHEMBL150168
  -OEChem-07121202283D

 77 82  0     1  0  0  0  0  0999 V2000
   -0.0187    1.5258    0.0104 C   0  0  0  0  0  0  0  0  0  0  0  0
    0.0021   -0.0041    0.0020 C   0  0  0  0  0  0  0  0  0  0  0  0
    0.7421   -0.5109    1.2415 C   0  0  0  0  0  0  0  0  0  0  0  0
    0.7614   -1.9398    1.2337 O   0  0  0  0  0  0  0  0  0  0  0  0
    1.3844   -2.5533    2.2718 C   0  0  0  0  0  0  0  0  0  0  0  0
    1.9610   -1.7988    3.2819 C   0  0  0  0  0  0  0  0  0  0  0  0
    2.5942   -2.4243    4.3380 C   0  0  0  0  0  0  0  0  0  0  0  0
    2.6587   -3.8066    4.3966 C   0  0  0  0  0  0  0  0  0  0  0  0
    2.0910   -4.5718    3.4004 C   0  0  0  0  0  0  0  0  0  0  0  0
    1.4424   -3.9519    2.3303 C   0  0  0  0  0  0  0  0  0  0  0  0
    0.8271   -4.7654    1.2634 C   0  0  0  0  0  0  0  0  0  0  0  0
    0.2379   -4.1497    0.2712 N   0  0  0  0  0  0  0  0  0  0  0  0
   -0.3478   -4.8345   -0.7425 C   0  0  0  0  0  0  0  0  0  0  0  0
   -0.9714   -4.1708   -1.7934 C   0  0  0  0  0  0  0  0  0  0  0  0
   -1.5630   -4.9064   -2.8190 C   0  0  0  0  0  0  0  0  0  0  0  0
   -1.5290   -6.3166   -2.7906 C   0  0  0  0  0  0  0  0  0  0  0  0
   -0.9102   -6.9822   -1.7493 C   0  0  0  0  0  0  0  0  0  0  0  0
   -0.3189   -6.2521   -0.7231 C   0  0  0  0  0  0  0  0  0  0  0  0
    0.3504   -6.9161    0.4048 C   0  0  0  0  0  0  0  0  0  0  0  0
    0.9046   -6.1299    1.3559 N   0  0  0  0  0  0  0  0  0  0  0  0
    0.4078   -8.1298    0.4779 O   0  0  0  0  0  0  0  0  0  0  0  0
   -2.1926   -6.7349   -3.9310 N   0  0  0  0  0  0  0  0  0  0  0  0
   -2.5958   -5.6200   -4.5953 C   0  0  0  0  0  0  0  0  0  0  0  0
   -2.2292   -4.5521   -3.9479 N   0  0  0  0  0  0  0  0  0  0  0  0
   -2.4180   -8.1219   -4.3453 C   0  0  0  0  0  0  0  0  0  0  0  0
   -3.6564   -8.6528   -3.6703 C   0  0  0  0  0  0  0  0  0  0  0  0
   -3.5602   -9.2738   -2.4391 C   0  0  0  0  0  0  0  0  0  0  0  0
   -4.6962   -9.7608   -1.8200 C   0  0  0  0  0  0  0  0  0  0  0  0
   -5.9284   -9.6264   -2.4319 C   0  0  0  0  0  0  0  0  0  0  0  0
   -6.0247   -9.0045   -3.6628 C   0  0  0  0  0  0  0  0  0  0  0  0
   -4.8893   -8.5137   -4.2799 C   0  0  0  0  0  0  0  0  0  0  0  0
    3.4704   -4.5903    5.7499 S   0  0  0  0  0  0  0  0  0  0  0  0
    3.8700   -5.8757    5.2947 O   0  0  0  0  0  0  0  0  0  0  0  0
    4.3949   -3.6455    6.2713 O   0  0  0  0  0  0  0  0  0  0  0  0
    2.3320   -4.8378    6.9268 N   0  0  3  0  0  0  0  0  0  0  0  0
    1.9894   -3.8908    8.0035 C   0  0  0  0  0  0  0  0  0  0  0  0
    0.5425   -4.2626    8.4131 C   0  0  0  0  0  0  0  0  0  0  0  0
    0.5698   -5.8086    8.2842 C   0  0  2  0  0  0  0  0  0  0  0  0
    1.4912   -6.0356    7.0673 C   0  0  0  0  0  0  0  0  0  0  0  0
   -0.7767   -6.3317    8.0173 N   0  3  0  0  0  0  0  0  0  0  0  0
   -0.7138   -7.7916    7.8660 C   0  0  0  0  0  0  0  0  0  0  0  0
   -1.6644   -5.9935    9.1378 C   0  0  0  0  0  0  0  0  0  0  0  0
    1.0039    1.9031    0.0027 H   0  0  0  0  0  0  0  0  0  0  0  0
   -0.5459    1.8868   -0.8726 H   0  0  0  0  0  0  0  0  0  0  0  0
   -0.5289    1.8773    0.9072 H   0  0  0  0  0  0  0  0  0  0  0  0
   -1.0205   -0.3814    0.0098 H   0  0  0  0  0  0  0  0  0  0  0  0
    0.5123   -0.3556   -0.8948 H   0  0  0  0  0  0  0  0  0  0  0  0
    1.7647   -0.1336    1.2338 H   0  0  0  0  0  0  0  0  0  0  0  0
    0.2319   -0.1594    2.1383 H   0  0  0  0  0  0  0  0  0  0  0  0
    1.9154   -0.7204    3.2427 H   0  0  0  0  0  0  0  0  0  0  0  0
    3.0419   -1.8322    5.1225 H   0  0  0  0  0  0  0  0  0  0  0  0
    2.1439   -5.6494    3.4498 H   0  0  0  0  0  0  0  0  0  0  0  0
   -0.9975   -3.0914   -1.8146 H   0  0  0  0  0  0  0  0  0  0  0  0
   -0.8870   -8.0619   -1.7316 H   0  0  0  0  0  0  0  0  0  0  0  0
   -3.1416   -5.6200   -5.5273 H   0  0  0  0  0  0  0  0  0  0  0  0
   -2.5482   -8.1615   -5.4267 H   0  0  0  0  0  0  0  0  0  0  0  0
   -1.5596   -8.7303   -4.0602 H   0  0  0  0  0  0  0  0  0  0  0  0
   -2.5975   -9.3788   -1.9610 H   0  0  0  0  0  0  0  0  0  0  0  0
   -4.6209  -10.2466   -0.8584 H   0  0  0  0  0  0  0  0  0  0  0  0
   -6.8158  -10.0075   -1.9486 H   0  0  0  0  0  0  0  0  0  0  0  0
   -6.9873   -8.8998   -4.1410 H   0  0  0  0  0  0  0  0  0  0  0  0
   -4.9650   -8.0246   -5.2398 H   0  0  0  0  0  0  0  0  0  0  0  0
    2.6668   -4.0156    8.8483 H   0  0  0  0  0  0  0  0  0  0  0  0
    2.0275   -2.8661    7.6338 H   0  0  0  0  0  0  0  0  0  0  0  0
    0.3370   -3.9598    9.4398 H   0  0  0  0  0  0  0  0  0  0  0  0
   -0.1825   -3.8260    7.7261 H   0  0  0  0  0  0  0  0  0  0  0  0
    0.9905   -6.2630    9.1812 H   0  0  0  0  0  0  0  0  0  0  0  0
    0.8923   -6.1757    6.1675 H   0  0  0  0  0  0  0  0  0  0  0  0
    2.1182   -6.9108    7.2378 H   0  0  0  0  0  0  0  0  0  0  0  0
   -1.7129   -8.1798    7.6680 H   0  0  0  0  0  0  0  0  0  0  0  0
   -0.0551   -8.0426    7.0346 H   0  0  0  0  0  0  0  0  0  0  0  0
   -0.3266   -8.2356    8.7831 H   0  0  0  0  0  0  0  0  0  0  0  0
   -1.7112   -4.9103    9.2501 H   0  0  0  0  0  0  0  0  0  0  0  0
   -2.6635   -6.3817    8.9398 H   0  0  0  0  0  0  0  0  0  0  0  0
   -1.2773   -6.4375   10.0549 H   0  0  0  0  0  0  0  0  0  0  0  0
   -1.1351   -5.9207    7.1684 H   0  0  0  0  0  0  0  0  0  0  0  0
    1.3574   -6.5357    2.1117 H   0  0  0  0  0  0  0  0  0  0  0  0
  1  2  1  0  0  0  0
  1 43  1  0  0  0  0
  1 44  1  0  0  0  0
  1 45  1  0  0  0  0
  2  3  1  0  0  0  0
  2 46  1  0  0  0  0
  2 47  1  0  0  0  0
  3  4  1  0  0  0  0
  3 48  1  0  0  0  0
  3 49  1  0  0  0  0
  4  5  1  0  0  0  0
  5 10  2  0  0  0  0
  5  6  1  0  0  0  0
  6  7  2  0  0  0  0
  6 50  1  0  0  0  0
  7  8  1  0  0  0  0
  7 51  1  0  0  0  0
  8  9  2  0  0  0  0
  8 32  1  0  0  0  0
  9 10  1  0  0  0  0
  9 52  1  0  0  0  0
 10 11  1  0  0  0  0
 11 20  1  0  0  0  0
 11 12  2  0  0  0  0
 12 13  1  0  0  0  0
 13 18  2  0  0  0  0
 13 14  1  0  0  0  0
 14 15  2  0  0  0  0
 14 53  1  0  0  0  0
 15 24  1  0  0  0  0
 15 16  1  0  0  0  0
 16 17  2  0  0  0  0
 16 22  1  0  0  0  0
 17 18  1  0  0  0  0
 17 54  1  0  0  0  0
 18 19  1  0  0  0  0
 19 20  1  0  0  0  0
 19 21  2  0  0  0  0
 20 77  1  0  0  0  0
 22 23  1  0  0  0  0
 22 25  1  0  0  0  0
 23 24  2  0  0  0  0
 23 55  1  0  0  0  0
 25 26  1  0  0  0  0
 25 56  1  0  0  0  0
 25 57  1  0  0  0  0
 26 31  2  0  0  0  0
 26 27  1  0  0  0  0
 27 28  2  0  0  0  0
 27 58  1  0  0  0  0
 28 29  1  0  0  0  0
 28 59  1  0  0  0  0
 29 30  2  0  0  0  0
 29 60  1  0  0  0  0
 30 31  1  0  0  0  0
 30 61  1  0  0  0  0
 31 62  1  0  0  0  0
 32 33  2  0  0  0  0
 32 34  2  0  0  0  0
 32 35  1  0  0  0  0
 35 39  1  0  0  0  0
 35 36  1  0  0  0  0
 36 37  1  0  0  0  0
 36 63  1  0  0  0  0
 36 64  1  0  0  0  0
 37 38  1  0  0  0  0
 37 65  1  0  0  0  0
 37 66  1  0  0  0  0
 38 39  1  0  0  0  0
 38 40  1  0  0  0  0
 38 67  1  0  0  0  0
 39 68  1  0  0  0  0
 39 69  1  0  0  0  0
 40 41  1  0  0  0  0
 40 42  1  0  0  0  0
 40 76  1  0  0  0  0
 41 70  1  0  0  0  0
 41 71  1  0  0  0  0
 41 72  1  0  0  0  0
 42 73  1  0  0  0  0
 42 74  1  0  0  0  0
 42 75  1  0  0  0  0
M  CHG  1  40   1
M  END
$$$$
CHEMBL150168
  -OEChem-07121202283D

 77 82  0     1  0  0  0  0  0999 V2000
   -0.0187    1.5258    0.0104 C   0  0  0  0  0  0  0  0  0  0  0  0
    0.0021   -0.0041    0.0020 C   0  0  0  0  0  0  0  0  0  0  0  0
   -1.4333   -0.5336    0.0129 C   0  0  0  0  0  0  0  0  0  0  0  0
   -1.4139   -1.9625    0.0050 O   0  0  0  0  0  0  0  0  0  0  0  0
   -2.6142   -2.5948    0.0131 C   0  0  0  0  0  0  0  0  0  0  0  0
   -3.7893   -1.8585    0.0225 C   0  0  0  0  0  0  0  0  0  0  0  0
   -5.0103   -2.5034    0.0312 C   0  0  0  0  0  0  0  0  0  0  0  0
   -5.0721   -3.8875    0.0302 C   0  0  0  0  0  0  0  0  0  0  0  0
   -3.9148   -4.6352    0.0208 C   0  0  0  0  0  0  0  0  0  0  0  0
   -2.6723   -3.9956    0.0061 C   0  0  0  0  0  0  0  0  0  0  0  0
   -1.4299   -4.7892   -0.0106 C   0  0  0  0  0  0  0  0  0  0  0  0
   -1.5266   -6.1464   -0.0225 N   0  0  0  0  0  0  0  0  0  0  0  0
   -0.3825   -6.9287   -0.0379 C   0  0  0  0  0  0  0  0  0  0  0  0
   -0.4522   -8.3072   -0.0502 C   0  0  0  0  0  0  0  0  0  0  0  0
    0.7253   -9.0577   -0.0660 C   0  0  0  0  0  0  0  0  0  0  0  0
    1.9763   -8.4075   -0.0693 C   0  0  0  0  0  0  0  0  0  0  0  0
    2.0466   -7.0270   -0.0581 C   0  0  0  0  0  0  0  0  0  0  0  0
    0.8720   -6.2824   -0.0413 C   0  0  0  0  0  0  0  0  0  0  0  0
    0.8923   -4.8082   -0.0283 C   0  0  0  0  0  0  0  0  0  0  0  0
   -0.2784   -4.1526   -0.0187 N   0  0  0  0  0  0  0  0  0  0  0  0
    1.9486   -4.1988   -0.0302 O   0  0  0  0  0  0  0  0  0  0  0  0
    2.9266   -9.4136   -0.0851 N   0  0  0  0  0  0  0  0  0  0  0  0
    2.2602  -10.5981   -0.0907 C   0  0  0  0  0  0  0  0  0  0  0  0
    0.9751  -10.3916   -0.0796 N   0  0  0  0  0  0  0  0  0  0  0  0
    4.3807   -9.2349   -0.0940 C   0  0  0  0  0  0  0  0  0  0  0  0
    4.8743   -9.0632    1.3195 C   0  0  0  0  0  0  0  0  0  0  0  0
    4.9493   -7.8004    1.8768 C   0  0  0  0  0  0  0  0  0  0  0  0
    5.4022   -7.6429    3.1734 C   0  0  0  0  0  0  0  0  0  0  0  0
    5.7796   -8.7483    3.9127 C   0  0  0  0  0  0  0  0  0  0  0  0
    5.7038  -10.0112    3.3557 C   0  0  0  0  0  0  0  0  0  0  0  0
    5.2469  -10.1691    2.0606 C   0  0  0  0  0  0  0  0  0  0  0  0
   -6.6380   -4.6954    0.0413 S   0  0  0  0  0  0  0  0  0  0  0  0
   -6.4237   -5.9890    0.5891 O   0  0  0  0  0  0  0  0  0  0  0  0
   -7.5656   -3.7755    0.6004 O   0  0  0  0  0  0  0  0  0  0  0  0
   -7.0853   -4.9181   -1.5375 N   0  0  3  0  0  0  0  0  0  0  0  0
   -7.8612   -3.9662   -2.3531 C   0  0  0  0  0  0  0  0  0  0  0  0
   -7.4879   -4.3032   -3.8183 C   0  0  0  0  0  0  0  0  0  0  0  0
   -7.3665   -5.8490   -3.7612 C   0  0  2  0  0  0  0  0  0  0  0  0
   -6.7691   -6.0951   -2.3598 C   0  0  0  0  0  0  0  0  0  0  0  0
   -6.4550   -6.3376   -4.8044 N   0  3  0  0  0  0  0  0  0  0  0  0
   -6.3333   -7.7981   -4.7035 C   0  0  0  0  0  0  0  0  0  0  0  0
   -6.9875   -5.9808   -6.1262 C   0  0  0  0  0  0  0  0  0  0  0  0
    1.0039    1.9031    0.0027 H   0  0  0  0  0  0  0  0  0  0  0  0
   -0.5459    1.8868   -0.8726 H   0  0  0  0  0  0  0  0  0  0  0  0
   -0.5289    1.8773    0.9072 H   0  0  0  0  0  0  0  0  0  0  0  0
    0.5123   -0.3556   -0.8948 H   0  0  0  0  0  0  0  0  0  0  0  0
    0.5293   -0.3651    0.8851 H   0  0  0  0  0  0  0  0  0  0  0  0
   -1.9435   -0.1821    0.9097 H   0  0  0  0  0  0  0  0  0  0  0  0
   -1.9605   -0.1726   -0.8702 H   0  0  0  0  0  0  0  0  0  0  0  0
   -3.7495   -0.7793    0.0234 H   0  0  0  0  0  0  0  0  0  0  0  0
   -5.9225   -1.9254    0.0393 H   0  0  0  0  0  0  0  0  0  0  0  0
   -3.9678   -5.7139    0.0208 H   0  0  0  0  0  0  0  0  0  0  0  0
   -1.4119   -8.8025   -0.0472 H   0  0  0  0  0  0  0  0  0  0  0  0
    3.0058   -6.5307   -0.0606 H   0  0  0  0  0  0  0  0  0  0  0  0
    2.7294  -11.5708   -0.1027 H   0  0  0  0  0  0  0  0  0  0  0  0
    4.8517  -10.1112   -0.5394 H   0  0  0  0  0  0  0  0  0  0  0  0
    4.6344   -8.3499   -0.6775 H   0  0  0  0  0  0  0  0  0  0  0  0
    4.6544   -6.9369    1.2992 H   0  0  0  0  0  0  0  0  0  0  0  0
    5.4614   -6.6563    3.6085 H   0  0  0  0  0  0  0  0  0  0  0  0
    6.1341   -8.6252    4.9254 H   0  0  0  0  0  0  0  0  0  0  0  0
    5.9990  -10.8747    3.9332 H   0  0  0  0  0  0  0  0  0  0  0  0
    5.1841  -11.1561    1.6267 H   0  0  0  0  0  0  0  0  0  0  0  0
   -8.9294   -4.1105   -2.1910 H   0  0  0  0  0  0  0  0  0  0  0  0
   -7.5755   -2.9417   -2.1149 H   0  0  0  0  0  0  0  0  0  0  0  0
   -8.2792   -3.9985   -4.5031 H   0  0  0  0  0  0  0  0  0  0  0  0
   -6.5373   -3.8466   -4.0942 H   0  0  0  0  0  0  0  0  0  0  0  0
   -8.3467   -6.3165   -3.8540 H   0  0  0  0  0  0  0  0  0  0  0  0
   -5.6883   -6.2175   -2.4318 H   0  0  0  0  0  0  0  0  0  0  0  0
   -7.2166   -6.9861   -1.9194 H   0  0  0  0  0  0  0  0  0  0  0  0
   -5.6570   -8.1607   -5.4776 H   0  0  0  0  0  0  0  0  0  0  0  0
   -5.9382   -8.0628   -3.7227 H   0  0  0  0  0  0  0  0  0  0  0  0
   -7.3144   -8.2544   -4.8353 H   0  0  0  0  0  0  0  0  0  0  0  0
   -7.0778   -4.8972   -6.2011 H   0  0  0  0  0  0  0  0  0  0  0  0
   -6.3112   -6.3434   -6.9003 H   0  0  0  0  0  0  0  0  0  0  0  0
   -7.9686   -6.4372   -6.2580 H   0  0  0  0  0  0  0  0  0  0  0  0
   -5.5469   -5.9152   -4.6825 H   0  0  0  0  0  0  0  0  0  0  0  0
   -2.4000   -6.5683   -0.0198 H   0  0  0  0  0  0  0  0  0  0  0  0
  1  2  1  0  0  0  0
  1 43  1  0  0  0  0
  1 44  1  0  0  0  0
  1 45  1  0  0  0  0
  2  3  1  0  0  0  0
  2 46  1  0  0  0  0
  2 47  1  0  0  0  0
  3  4  1  0  0  0  0
  3 48  1  0  0  0  0
  3 49  1  0  0  0  0
  4  5  1  0  0  0  0
  5 10  2  0  0  0  0
  5  6  1  0  0  0  0
  6  7  2  0  0  0  0
  6 50  1  0  0  0  0
  7  8  1  0  0  0  0
  7 51  1  0  0  0  0
  8  9  2  0  0  0  0
  8 32  1  0  0  0  0
  9 10  1  0  0  0  0
  9 52  1  0  0  0  0
 10 11  1  0  0  0  0
 11 20  2  0  0  0  0
 11 12  1  0  0  0  0
 12 13  1  0  0  0  0
 12 77  1  0  0  0  0
 13 18  2  0  0  0  0
 13 14  1  0  0  0  0
 14 15  2  0  0  0  0
 14 53  1  0  0  0  0
 15 24  1  0  0  0  0
 15 16  1  0  0  0  0
 16 17  2  0  0  0  0
 16 22  1  0  0  0  0
 17 18  1  0  0  0  0
 17 54  1  0  0  0  0
 18 19  1  0  0  0  0
 19 20  1  0  0  0  0
 19 21  2  0  0  0  0
 22 23  1  0  0  0  0
 22 25  1  0  0  0  0
 23 24  2  0  0  0  0
 23 55  1  0  0  0  0
 25 26  1  0  0  0  0
 25 56  1  0  0  0  0
 25 57  1  0  0  0  0
 26 31  2  0  0  0  0
 26 27  1  0  0  0  0
 27 28  2  0  0  0  0
 27 58  1  0  0  0  0
 28 29  1  0  0  0  0
 28 59  1  0  0  0  0
 29 30  2  0  0  0  0
 29 60  1  0  0  0  0
 30 31  1  0  0  0  0
 30 61  1  0  0  0  0
 31 62  1  0  0  0  0
 32 33  2  0  0  0  0
 32 34  2  0  0  0  0
 32 35  1  0  0  0  0
 35 39  1  0  0  0  0
 35 36  1  0  0  0  0
 36 37  1  0  0  0  0
 36 63  1  0  0  0  0
 36 64  1  0  0  0  0
 37 38  1  0  0  0  0
 37 65  1  0  0  0  0
 37 66  1  0  0  0  0
 38 39  1  0  0  0  0
 38 40  1  0  0  0  0
 38 67  1  0  0  0  0
 39 68  1  0  0  0  0
 39 69  1  0  0  0  0
 40 41  1  0  0  0  0
 40 42  1  0  0  0  0
 40 76  1  0  0  0  0
 41 70  1  0  0  0  0
 41 71  1  0  0  0  0
 41 72  1  0  0  0  0
 42 73  1  0  0  0  0
 42 74  1  0  0  0  0
 42 75  1  0  0  0  0
M  CHG  1  40   1
M  END
$$$$
CHEMBL150168
  -OEChem-07121202283D

 76 81  0     1  0  0  0  0  0999 V2000
   -0.0187    1.5258    0.0104 C   0  0  0  0  0  0  0  0  0  0  0  0
    0.0021   -0.0041    0.0020 C   0  0  0  0  0  0  0  0  0  0  0  0
    0.7182   -0.4975   -1.2568 C   0  0  0  0  0  0  0  0  0  0  0  0
    0.7376   -1.9263   -1.2646 O   0  0  0  0  0  0  0  0  0  0  0  0
    1.3407   -2.5288   -2.3214 C   0  0  0  0  0  0  0  0  0  0  0  0
    1.9081   -1.7631   -3.3282 C   0  0  0  0  0  0  0  0  0  0  0  0
    2.5218   -2.3773   -4.4025 C   0  0  0  0  0  0  0  0  0  0  0  0
    2.5748   -3.7585   -4.4815 C   0  0  0  0  0  0  0  0  0  0  0  0
    2.0147   -4.5335   -3.4874 C   0  0  0  0  0  0  0  0  0  0  0  0
    1.3972   -3.9247   -2.3955 C   0  0  0  0  0  0  0  0  0  0  0  0
    0.7995   -4.7518   -1.3220 C   0  0  0  0  0  0  0  0  0  0  0  0
    0.8747   -6.0653   -1.4198 N   0  0  0  0  0  0  0  0  0  0  0  0
    0.3453   -6.8490   -0.4666 C   0  0  0  0  0  0  0  0  0  0  0  0
    0.4123   -8.2406   -0.5470 C   0  0  0  0  0  0  0  0  0  0  0  0
   -0.1486   -9.0138    0.4621 C   0  0  0  0  0  0  0  0  0  0  0  0
   -0.7834   -8.3953    1.5636 C   0  0  0  0  0  0  0  0  0  0  0  0
   -0.8551   -7.0220    1.6528 C   0  0  0  0  0  0  0  0  0  0  0  0
   -0.2944   -6.2351    0.6437 C   0  0  0  0  0  0  0  0  0  0  0  0
   -0.3429   -4.8206    0.6919 C   0  0  0  0  0  0  0  0  0  0  0  0
    0.2125   -4.1379   -0.2942 N   0  0  0  0  0  0  0  0  0  0  0  0
   -0.9398   -4.1830    1.7252 O   0  5  0  0  0  0  0  0  0  0  0  0
   -1.2269   -9.4282    2.3730 N   0  0  0  0  0  0  0  0  0  0  0  0
   -0.8682  -10.5946    1.7728 C   0  0  0  0  0  0  0  0  0  0  0  0
   -0.2398  -10.3555    0.6592 N   0  0  0  0  0  0  0  0  0  0  0  0
   -1.9478   -9.2898    3.6408 C   0  0  0  0  0  0  0  0  0  0  0  0
   -3.4218   -9.1375    3.3664 C   0  0  0  0  0  0  0  0  0  0  0  0
   -3.9639   -7.8795    3.1808 C   0  0  0  0  0  0  0  0  0  0  0  0
   -5.3159   -7.7398    2.9291 C   0  0  0  0  0  0  0  0  0  0  0  0
   -6.1258   -8.8581    2.8626 C   0  0  0  0  0  0  0  0  0  0  0  0
   -5.5835  -10.1161    3.0473 C   0  0  0  0  0  0  0  0  0  0  0  0
   -4.2307  -10.2562    3.2947 C   0  0  0  0  0  0  0  0  0  0  0  0
    3.3601   -4.5293   -5.8576 S   0  0  0  0  0  0  0  0  0  0  0  0
    2.7982   -5.8296   -5.9699 O   0  0  0  0  0  0  0  0  0  0  0  0
    3.3260   -3.5900   -6.9233 O   0  0  0  0  0  0  0  0  0  0  0  0
    4.9543   -4.7354   -5.4593 N   0  0  3  0  0  0  0  0  0  0  0  0
    6.0341   -3.7624   -5.7054 C   0  0  0  0  0  0  0  0  0  0  0  0
    7.1212   -4.1025   -4.6556 C   0  0  0  0  0  0  0  0  0  0  0  0
    7.0344   -5.6509   -4.6076 C   0  0  2  0  0  0  0  0  0  0  0  0
    5.5260   -5.9163   -4.7959 C   0  0  0  0  0  0  0  0  0  0  0  0
    7.4894   -6.1568   -3.3057 N   0  3  0  0  0  0  0  0  0  0  0  0
    7.3632   -7.6201   -3.2778 C   0  0  0  0  0  0  0  0  0  0  0  0
    8.8948   -5.7826   -3.0990 C   0  0  0  0  0  0  0  0  0  0  0  0
    1.0039    1.9031    0.0027 H   0  0  0  0  0  0  0  0  0  0  0  0
   -0.5459    1.8868   -0.8726 H   0  0  0  0  0  0  0  0  0  0  0  0
   -0.5289    1.8773    0.9072 H   0  0  0  0  0  0  0  0  0  0  0  0
    0.5293   -0.3651    0.8851 H   0  0  0  0  0  0  0  0  0  0  0  0
   -1.0205   -0.3814    0.0098 H   0  0  0  0  0  0  0  0  0  0  0  0
    0.1910   -0.1364   -2.1398 H   0  0  0  0  0  0  0  0  0  0  0  0
    1.7408   -0.1202   -1.2645 H   0  0  0  0  0  0  0  0  0  0  0  0
    1.8698   -0.6852   -3.2728 H   0  0  0  0  0  0  0  0  0  0  0  0
    2.9622   -1.7771   -5.1849 H   0  0  0  0  0  0  0  0  0  0  0  0
    2.0578   -5.6106   -3.5528 H   0  0  0  0  0  0  0  0  0  0  0  0
    0.8968   -8.7136   -1.3884 H   0  0  0  0  0  0  0  0  0  0  0  0
   -1.3414   -6.5569    2.4976 H   0  0  0  0  0  0  0  0  0  0  0  0
   -1.0751  -11.5793    2.1651 H   0  0  0  0  0  0  0  0  0  0  0  0
   -1.7818  -10.1770    4.2519 H   0  0  0  0  0  0  0  0  0  0  0  0
   -1.5842   -8.4099    4.1714 H   0  0  0  0  0  0  0  0  0  0  0  0
   -3.3312   -7.0058    3.2328 H   0  0  0  0  0  0  0  0  0  0  0  0
   -5.7396   -6.7569    2.7849 H   0  0  0  0  0  0  0  0  0  0  0  0
   -7.1823   -8.7488    2.6667 H   0  0  0  0  0  0  0  0  0  0  0  0
   -6.2163  -10.9898    2.9956 H   0  0  0  0  0  0  0  0  0  0  0  0
   -3.8064  -11.2393    3.4353 H   0  0  0  0  0  0  0  0  0  0  0  0
    6.4300   -3.8821   -6.7139 H   0  0  0  0  0  0  0  0  0  0  0  0
    5.6695   -2.7458   -5.5583 H   0  0  0  0  0  0  0  0  0  0  0  0
    8.1053   -3.7766   -4.9925 H   0  0  0  0  0  0  0  0  0  0  0  0
    6.8780   -3.6673   -3.6862 H   0  0  0  0  0  0  0  0  0  0  0  0
    7.6120   -6.0948   -5.4184 H   0  0  0  0  0  0  0  0  0  0  0  0
    5.0498   -6.0638   -3.8265 H   0  0  0  0  0  0  0  0  0  0  0  0
    5.3818   -6.7982   -5.4200 H   0  0  0  0  0  0  0  0  0  0  0  0
    7.7009   -7.9956   -2.3118 H   0  0  0  0  0  0  0  0  0  0  0  0
    6.3204   -7.8979   -3.4312 H   0  0  0  0  0  0  0  0  0  0  0  0
    7.9747   -8.0527   -4.0697 H   0  0  0  0  0  0  0  0  0  0  0  0
    8.9885   -4.6968   -3.1197 H   0  0  0  0  0  0  0  0  0  0  0  0
    9.2325   -6.1580   -2.1330 H   0  0  0  0  0  0  0  0  0  0  0  0
    9.5063   -6.2152   -3.8908 H   0  0  0  0  0  0  0  0  0  0  0  0
    6.9234   -5.7564   -2.5727 H   0  0  0  0  0  0  0  0  0  0  0  0
  1  2  1  0  0  0  0
  1 43  1  0  0  0  0
  1 44  1  0  0  0  0
  1 45  1  0  0  0  0
  2  3  1  0  0  0  0
  2 46  1  0  0  0  0
  2 47  1  0  0  0  0
  3  4  1  0  0  0  0
  3 48  1  0  0  0  0
  3 49  1  0  0  0  0
  4  5  1  0  0  0  0
  5 10  2  0  0  0  0
  5  6  1  0  0  0  0
  6  7  2  0  0  0  0
  6 50  1  0  0  0  0
  7  8  1  0  0  0  0
  7 51  1  0  0  0  0
  8  9  2  0  0  0  0
  8 32  1  0  0  0  0
  9 10  1  0  0  0  0
  9 52  1  0  0  0  0
 10 11  1  0  0  0  0
 11 20  2  0  0  0  0
 11 12  1  0  0  0  0
 12 13  2  0  0  0  0
 13 18  1  0  0  0  0
 13 14  1  0  0  0  0
 14 15  2  0  0  0  0
 14 53  1  0  0  0  0
 15 24  1  0  0  0  0
 15 16  1  0  0  0  0
 16 17  2  0  0  0  0
 16 22  1  0  0  0  0
 17 18  1  0  0  0  0
 17 54  1  0  0  0  0
 18 19  2  0  0  0  0
 19 20  1  0  0  0  0
 19 21  1  0  0  0  0
 22 23  1  0  0  0  0
 22 25  1  0  0  0  0
 23 24  2  0  0  0  0
 23 55  1  0  0  0  0
 25 26  1  0  0  0  0
 25 56  1  0  0  0  0
 25 57  1  0  0  0  0
 26 31  2  0  0  0  0
 26 27  1  0  0  0  0
 27 28  2  0  0  0  0
 27 58  1  0  0  0  0
 28 29  1  0  0  0  0
 28 59  1  0  0  0  0
 29 30  2  0  0  0  0
 29 60  1  0  0  0  0
 30 31  1  0  0  0  0
 30 61  1  0  0  0  0
 31 62  1  0  0  0  0
 32 33  2  0  0  0  0
 32 34  2  0  0  0  0
 32 35  1  0  0  0  0
 35 39  1  0  0  0  0
 35 36  1  0  0  0  0
 36 37  1  0  0  0  0
 36 63  1  0  0  0  0
 36 64  1  0  0  0  0
 37 38  1  0  0  0  0
 37 65  1  0  0  0  0
 37 66  1  0  0  0  0
 38 39  1  0  0  0  0
 38 40  1  0  0  0  0
 38 67  1  0  0  0  0
 39 68  1  0  0  0  0
 39 69  1  0  0  0  0
 40 41  1  0  0  0  0
 40 42  1  0  0  0  0
 40 76  1  0  0  0  0
 41 70  1  0  0  0  0
 41 71  1  0  0  0  0
 41 72  1  0  0  0  0
 42 73  1  0  0  0  0
 42 74  1  0  0  0  0
 42 75  1  0  0  0  0
M  CHG  2  21  -1  40   1
M  END
$$$$
CHEMBL150168
  -OEChem-07121202283D

 77 82  0     1  0  0  0  0  0999 V2000
   -0.0187    1.5258    0.0104 C   0  0  0  0  0  0  0  0  0  0  0  0
    0.0021   -0.0041    0.0020 C   0  0  0  0  0  0  0  0  0  0  0  0
    0.7421   -0.5109    1.2415 C   0  0  0  0  0  0  0  0  0  0  0  0
    0.7614   -1.9398    1.2337 O   0  0  0  0  0  0  0  0  0  0  0  0
    1.3844   -2.5533    2.2718 C   0  0  0  0  0  0  0  0  0  0  0  0
    1.9610   -1.7988    3.2819 C   0  0  0  0  0  0  0  0  0  0  0  0
    2.5942   -2.4243    4.3380 C   0  0  0  0  0  0  0  0  0  0  0  0
    2.6587   -3.8066    4.3966 C   0  0  0  0  0  0  0  0  0  0  0  0
    2.0910   -4.5718    3.4004 C   0  0  0  0  0  0  0  0  0  0  0  0
    1.4424   -3.9519    2.3303 C   0  0  0  0  0  0  0  0  0  0  0  0
    0.8271   -4.7654    1.2634 C   0  0  0  0  0  0  0  0  0  0  0  0
    0.2379   -4.1497    0.2712 N   0  0  0  0  0  0  0  0  0  0  0  0
   -0.3478   -4.8345   -0.7425 C   0  0  0  0  0  0  0  0  0  0  0  0
   -0.9714   -4.1708   -1.7934 C   0  0  0  0  0  0  0  0  0  0  0  0
   -1.5630   -4.9064   -2.8190 C   0  0  0  0  0  0  0  0  0  0  0  0
   -1.5290   -6.3166   -2.7906 C   0  0  0  0  0  0  0  0  0  0  0  0
   -0.9102   -6.9822   -1.7493 C   0  0  0  0  0  0  0  0  0  0  0  0
   -0.3189   -6.2521   -0.7231 C   0  0  0  0  0  0  0  0  0  0  0  0
    0.3504   -6.9161    0.4048 C   0  0  0  0  0  0  0  0  0  0  0  0
    0.9046   -6.1299    1.3559 N   0  0  0  0  0  0  0  0  0  0  0  0
    0.4078   -8.1298    0.4779 O   0  0  0  0  0  0  0  0  0  0  0  0
   -2.1926   -6.7349   -3.9310 N   0  0  0  0  0  0  0  0  0  0  0  0
   -2.5958   -5.6200   -4.5953 C   0  0  0  0  0  0  0  0  0  0  0  0
   -2.2292   -4.5521   -3.9479 N   0  0  0  0  0  0  0  0  0  0  0  0
   -2.4180   -8.1219   -4.3453 C   0  0  0  0  0  0  0  0  0  0  0  0
   -3.6564   -8.6528   -3.6703 C   0  0  0  0  0  0  0  0  0  0  0  0
   -3.5602   -9.2738   -2.4391 C   0  0  0  0  0  0  0  0  0  0  0  0
   -4.6962   -9.7608   -1.8200 C   0  0  0  0  0  0  0  0  0  0  0  0
   -5.9284   -9.6264   -2.4319 C   0  0  0  0  0  0  0  0  0  0  0  0
   -6.0247   -9.0045   -3.6628 C   0  0  0  0  0  0  0  0  0  0  0  0
   -4.8893   -8.5137   -4.2799 C   0  0  0  0  0  0  0  0  0  0  0  0
    3.4704   -4.5903    5.7499 S   0  0  0  0  0  0  0  0  0  0  0  0
    3.8700   -5.8757    5.2947 O   0  0  0  0  0  0  0  0  0  0  0  0
    4.3949   -3.6455    6.2713 O   0  0  0  0  0  0  0  0  0  0  0  0
    2.3320   -4.8378    6.9268 N   0  0  3  0  0  0  0  0  0  0  0  0
    1.9903   -3.8934    8.0006 C   0  0  0  0  0  0  0  0  0  0  0  0
    0.8634   -4.5371    8.8355 C   0  0  0  0  0  0  0  0  0  0  0  0
    0.2424   -5.5618    7.8497 C   0  0  1  0  0  0  0  0  0  0  0  0
    1.4889   -6.0389    7.0677 C   0  0  0  0  0  0  0  0  0  0  0  0
   -0.3858   -6.6749    8.5737 N   0  3  0  0  0  0  0  0  0  0  0  0
   -1.4718   -6.1591    9.4179 C   0  0  0  0  0  0  0  0  0  0  0  0
   -0.9311   -7.6402    7.6100 C   0  0  0  0  0  0  0  0  0  0  0  0
    1.0039    1.9031    0.0027 H   0  0  0  0  0  0  0  0  0  0  0  0
   -0.5459    1.8868   -0.8726 H   0  0  0  0  0  0  0  0  0  0  0  0
   -0.5289    1.8773    0.9072 H   0  0  0  0  0  0  0  0  0  0  0  0
   -1.0205   -0.3814    0.0098 H   0  0  0  0  0  0  0  0  0  0  0  0
    0.5123   -0.3556   -0.8948 H   0  0  0  0  0  0  0  0  0  0  0  0
    1.7647   -0.1336    1.2338 H   0  0  0  0  0  0  0  0  0  0  0  0
    0.2319   -0.1594    2.1383 H   0  0  0  0  0  0  0  0  0  0  0  0
    1.9154   -0.7204    3.2427 H   0  0  0  0  0  0  0  0  0  0  0  0
    3.0419   -1.8322    5.1225 H   0  0  0  0  0  0  0  0  0  0  0  0
    2.1439   -5.6494    3.4498 H   0  0  0  0  0  0  0  0  0  0  0  0
   -0.9975   -3.0914   -1.8146 H   0  0  0  0  0  0  0  0  0  0  0  0
   -0.8870   -8.0619   -1.7316 H   0  0  0  0  0  0  0  0  0  0  0  0
   -3.1416   -5.6200   -5.5273 H   0  0  0  0  0  0  0  0  0  0  0  0
   -2.5482   -8.1615   -5.4267 H   0  0  0  0  0  0  0  0  0  0  0  0
   -1.5596   -8.7303   -4.0602 H   0  0  0  0  0  0  0  0  0  0  0  0
   -2.5975   -9.3788   -1.9610 H   0  0  0  0  0  0  0  0  0  0  0  0
   -4.6209  -10.2466   -0.8584 H   0  0  0  0  0  0  0  0  0  0  0  0
   -6.8158  -10.0075   -1.9486 H   0  0  0  0  0  0  0  0  0  0  0  0
   -6.9873   -8.8998   -4.1410 H   0  0  0  0  0  0  0  0  0  0  0  0
   -4.9650   -8.0246   -5.2398 H   0  0  0  0  0  0  0  0  0  0  0  0
    2.8626   -3.7158    8.6296 H   0  0  0  0  0  0  0  0  0  0  0  0
    1.6430   -2.9537    7.5711 H   0  0  0  0  0  0  0  0  0  0  0  0
    1.2723   -5.0426    9.7104 H   0  0  0  0  0  0  0  0  0  0  0  0
    0.1265   -3.7898    9.1299 H   0  0  0  0  0  0  0  0  0  0  0  0
   -0.4718   -5.0789    7.1828 H   0  0  0  0  0  0  0  0  0  0  0  0
    1.2002   -6.4169    6.0870 H   0  0  0  0  0  0  0  0  0  0  0  0
    2.0161   -6.8084    7.6317 H   0  0  0  0  0  0  0  0  0  0  0  0
   -1.9380   -6.9851    9.9551 H   0  0  0  0  0  0  0  0  0  0  0  0
   -1.0672   -5.4428   10.1330 H   0  0  0  0  0  0  0  0  0  0  0  0
   -2.2160   -5.6667    8.7920 H   0  0  0  0  0  0  0  0  0  0  0  0
   -0.1253   -8.0229    6.9836 H   0  0  0  0  0  0  0  0  0  0  0  0
   -1.3973   -8.4661    8.1472 H   0  0  0  0  0  0  0  0  0  0  0  0
   -1.6753   -7.1478    6.9840 H   0  0  0  0  0  0  0  0  0  0  0  0
    0.3031   -7.1307    9.1532 H   0  0  0  0  0  0  0  0  0  0  0  0
    1.3574   -6.5357    2.1117 H   0  0  0  0  0  0  0  0  0  0  0  0
  1  2  1  0  0  0  0
  1 43  1  0  0  0  0
  1 44  1  0  0  0  0
  1 45  1  0  0  0  0
  2  3  1  0  0  0  0
  2 46  1  0  0  0  0
  2 47  1  0  0  0  0
  3  4  1  0  0  0  0
  3 48  1  0  0  0  0
  3 49  1  0  0  0  0
  4  5  1  0  0  0  0
  5 10  2  0  0  0  0
  5  6  1  0  0  0  0
  6  7  2  0  0  0  0
  6 50  1  0  0  0  0
  7  8  1  0  0  0  0
  7 51  1  0  0  0  0
  8  9  2  0  0  0  0
  8 32  1  0  0  0  0
  9 10  1  0  0  0  0
  9 52  1  0  0  0  0
 10 11  1  0  0  0  0
 11 20  1  0  0  0  0
 11 12  2  0  0  0  0
 12 13  1  0  0  0  0
 13 18  2  0  0  0  0
 13 14  1  0  0  0  0
 14 15  2  0  0  0  0
 14 53  1  0  0  0  0
 15 24  1  0  0  0  0
 15 16  1  0  0  0  0
 16 17  2  0  0  0  0
 16 22  1  0  0  0  0
 17 18  1  0  0  0  0
 17 54  1  0  0  0  0
 18 19  1  0  0  0  0
 19 20  1  0  0  0  0
 19 21  2  0  0  0  0
 20 77  1  0  0  0  0
 22 23  1  0  0  0  0
 22 25  1  0  0  0  0
 23 24  2  0  0  0  0
 23 55  1  0  0  0  0
 25 26  1  0  0  0  0
 25 56  1  0  0  0  0
 25 57  1  0  0  0  0
 26 31  2  0  0  0  0
 26 27  1  0  0  0  0
 27 28  2  0  0  0  0
 27 58  1  0  0  0  0
 28 29  1  0  0  0  0
 28 59  1  0  0  0  0
 29 30  2  0  0  0  0
 29 60  1  0  0  0  0
 30 31  1  0  0  0  0
 30 61  1  0  0  0  0
 31 62  1  0  0  0  0
 32 33  2  0  0  0  0
 32 34  2  0  0  0  0
 32 35  1  0  0  0  0
 35 39  1  0  0  0  0
 35 36  1  0  0  0  0
 36 37  1  0  0  0  0
 36 63  1  0  0  0  0
 36 64  1  0  0  0  0
 37 38  1  0  0  0  0
 37 65  1  0  0  0  0
 37 66  1  0  0  0  0
 38 39  1  0  0  0  0
 38 40  1  0  0  0  0
 38 67  1  0  0  0  0
 39 68  1  0  0  0  0
 39 69  1  0  0  0  0
 40 41  1  0  0  0  0
 40 42  1  0  0  0  0
 40 76  1  0  0  0  0
 41 70  1  0  0  0  0
 41 71  1  0  0  0  0
 41 72  1  0  0  0  0
 42 73  1  0  0  0  0
 42 74  1  0  0  0  0
 42 75  1  0  0  0  0
M  CHG  1  40   1
M  END
$$$$
CHEMBL150168
  -OEChem-07121202283D

 77 82  0     1  0  0  0  0  0999 V2000
   -0.0187    1.5258    0.0104 C   0  0  0  0  0  0  0  0  0  0  0  0
    0.0021   -0.0041    0.0020 C   0  0  0  0  0  0  0  0  0  0  0  0
   -1.4333   -0.5336    0.0129 C   0  0  0  0  0  0  0  0  0  0  0  0
   -1.4139   -1.9625    0.0050 O   0  0  0  0  0  0  0  0  0  0  0  0
   -2.6142   -2.5948    0.0131 C   0  0  0  0  0  0  0  0  0  0  0  0
   -3.7893   -1.8585    0.0225 C   0  0  0  0  0  0  0  0  0  0  0  0
   -5.0103   -2.5034    0.0312 C   0  0  0  0  0  0  0  0  0  0  0  0
   -5.0721   -3.8875    0.0302 C   0  0  0  0  0  0  0  0  0  0  0  0
   -3.9148   -4.6352    0.0208 C   0  0  0  0  0  0  0  0  0  0  0  0
   -2.6723   -3.9956    0.0061 C   0  0  0  0  0  0  0  0  0  0  0  0
   -1.4299   -4.7892   -0.0106 C   0  0  0  0  0  0  0  0  0  0  0  0
   -1.5266   -6.1464   -0.0225 N   0  0  0  0  0  0  0  0  0  0  0  0
   -0.3825   -6.9287   -0.0379 C   0  0  0  0  0  0  0  0  0  0  0  0
   -0.4522   -8.3072   -0.0502 C   0  0  0  0  0  0  0  0  0  0  0  0
    0.7253   -9.0577   -0.0660 C   0  0  0  0  0  0  0  0  0  0  0  0
    1.9763   -8.4075   -0.0693 C   0  0  0  0  0  0  0  0  0  0  0  0
    2.0466   -7.0270   -0.0581 C   0  0  0  0  0  0  0  0  0  0  0  0
    0.8720   -6.2824   -0.0413 C   0  0  0  0  0  0  0  0  0  0  0  0
    0.8923   -4.8082   -0.0283 C   0  0  0  0  0  0  0  0  0  0  0  0
   -0.2784   -4.1526   -0.0187 N   0  0  0  0  0  0  0  0  0  0  0  0
    1.9486   -4.1988   -0.0302 O   0  0  0  0  0  0  0  0  0  0  0  0
    2.9266   -9.4136   -0.0851 N   0  0  0  0  0  0  0  0  0  0  0  0
    2.2602  -10.5981   -0.0907 C   0  0  0  0  0  0  0  0  0  0  0  0
    0.9751  -10.3916   -0.0796 N   0  0  0  0  0  0  0  0  0  0  0  0
    4.3807   -9.2349   -0.0940 C   0  0  0  0  0  0  0  0  0  0  0  0
    4.8743   -9.0632    1.3195 C   0  0  0  0  0  0  0  0  0  0  0  0
    4.9493   -7.8004    1.8768 C   0  0  0  0  0  0  0  0  0  0  0  0
    5.4022   -7.6429    3.1734 C   0  0  0  0  0  0  0  0  0  0  0  0
    5.7796   -8.7483    3.9127 C   0  0  0  0  0  0  0  0  0  0  0  0
    5.7038  -10.0112    3.3557 C   0  0  0  0  0  0  0  0  0  0  0  0
    5.2469  -10.1691    2.0606 C   0  0  0  0  0  0  0  0  0  0  0  0
   -6.6380   -4.6954    0.0413 S   0  0  0  0  0  0  0  0  0  0  0  0
   -6.4237   -5.9890    0.5891 O   0  0  0  0  0  0  0  0  0  0  0  0
   -7.5656   -3.7755    0.6004 O   0  0  0  0  0  0  0  0  0  0  0  0
   -7.0853   -4.9181   -1.5375 N   0  0  3  0  0  0  0  0  0  0  0  0
   -7.8591   -3.9688   -2.3509 C   0  0  0  0  0  0  0  0  0  0  0  0
   -8.0099   -4.5869   -3.7569 C   0  0  0  0  0  0  0  0  0  0  0  0
   -6.8304   -5.5927   -3.8227 C   0  0  1  0  0  0  0  0  0  0  0  0
   -6.7682   -6.0983   -2.3620 C   0  0  0  0  0  0  0  0  0  0  0  0
   -7.1270   -6.6921   -4.7507 N   0  3  0  0  0  0  0  0  0  0  0  0
   -7.3238   -6.1521   -6.1026 C   0  0  0  0  0  0  0  0  0  0  0  0
   -6.0053   -7.6406   -4.7608 C   0  0  0  0  0  0  0  0  0  0  0  0
    1.0039    1.9031    0.0027 H   0  0  0  0  0  0  0  0  0  0  0  0
   -0.5459    1.8868   -0.8726 H   0  0  0  0  0  0  0  0  0  0  0  0
   -0.5289    1.8773    0.9072 H   0  0  0  0  0  0  0  0  0  0  0  0
    0.5123   -0.3556   -0.8948 H   0  0  0  0  0  0  0  0  0  0  0  0
    0.5293   -0.3651    0.8851 H   0  0  0  0  0  0  0  0  0  0  0  0
   -1.9435   -0.1821    0.9097 H   0  0  0  0  0  0  0  0  0  0  0  0
   -1.9605   -0.1726   -0.8702 H   0  0  0  0  0  0  0  0  0  0  0  0
   -3.7495   -0.7793    0.0234 H   0  0  0  0  0  0  0  0  0  0  0  0
   -5.9225   -1.9254    0.0393 H   0  0  0  0  0  0  0  0  0  0  0  0
   -3.9678   -5.7139    0.0208 H   0  0  0  0  0  0  0  0  0  0  0  0
   -1.4119   -8.8025   -0.0472 H   0  0  0  0  0  0  0  0  0  0  0  0
    3.0058   -6.5307   -0.0606 H   0  0  0  0  0  0  0  0  0  0  0  0
    2.7294  -11.5708   -0.1027 H   0  0  0  0  0  0  0  0  0  0  0  0
    4.8517  -10.1112   -0.5394 H   0  0  0  0  0  0  0  0  0  0  0  0
    4.6344   -8.3499   -0.6775 H   0  0  0  0  0  0  0  0  0  0  0  0
    4.6544   -6.9369    1.2992 H   0  0  0  0  0  0  0  0  0  0  0  0
    5.4614   -6.6563    3.6085 H   0  0  0  0  0  0  0  0  0  0  0  0
    6.1341   -8.6252    4.9254 H   0  0  0  0  0  0  0  0  0  0  0  0
    5.9990  -10.8747    3.9332 H   0  0  0  0  0  0  0  0  0  0  0  0
    5.1841  -11.1561    1.6267 H   0  0  0  0  0  0  0  0  0  0  0  0
   -8.8423   -3.8150   -1.9061 H   0  0  0  0  0  0  0  0  0  0  0  0
   -7.3278   -3.0195   -2.4184 H   0  0  0  0  0  0  0  0  0  0  0  0
   -8.9643   -5.1051   -3.8499 H   0  0  0  0  0  0  0  0  0  0  0  0
   -7.9083   -3.8224   -4.5271 H   0  0  0  0  0  0  0  0  0  0  0  0
   -5.9033   -5.0901   -4.0984 H   0  0  0  0  0  0  0  0  0  0  0  0
   -5.7687   -6.4660   -2.1296 H   0  0  0  0  0  0  0  0  0  0  0  0
   -7.5084   -6.8824   -2.2027 H   0  0  0  0  0  0  0  0  0  0  0  0
   -7.5439   -6.9678   -6.7913 H   0  0  0  0  0  0  0  0  0  0  0  0
   -8.1562   -5.4483   -6.0952 H   0  0  0  0  0  0  0  0  0  0  0  0
   -6.4174   -5.6394   -6.4246 H   0  0  0  0  0  0  0  0  0  0  0  0
   -5.8593   -8.0413   -3.7577 H   0  0  0  0  0  0  0  0  0  0  0  0
   -6.2254   -8.4563   -5.4494 H   0  0  0  0  0  0  0  0  0  0  0  0
   -5.0989   -7.1279   -5.0828 H   0  0  0  0  0  0  0  0  0  0  0  0
   -7.9661   -7.1667   -4.4527 H   0  0  0  0  0  0  0  0  0  0  0  0
   -2.4000   -6.5683   -0.0198 H   0  0  0  0  0  0  0  0  0  0  0  0
  1  2  1  0  0  0  0
  1 43  1  0  0  0  0
  1 44  1  0  0  0  0
  1 45  1  0  0  0  0
  2  3  1  0  0  0  0
  2 46  1  0  0  0  0
  2 47  1  0  0  0  0
  3  4  1  0  0  0  0
  3 48  1  0  0  0  0
  3 49  1  0  0  0  0
  4  5  1  0  0  0  0
  5 10  2  0  0  0  0
  5  6  1  0  0  0  0
  6  7  2  0  0  0  0
  6 50  1  0  0  0  0
  7  8  1  0  0  0  0
  7 51  1  0  0  0  0
  8  9  2  0  0  0  0
  8 32  1  0  0  0  0
  9 10  1  0  0  0  0
  9 52  1  0  0  0  0
 10 11  1  0  0  0  0
 11 20  2  0  0  0  0
 11 12  1  0  0  0  0
 12 13  1  0  0  0  0
 12 77  1  0  0  0  0
 13 18  2  0  0  0  0
 13 14  1  0  0  0  0
 14 15  2  0  0  0  0
 14 53  1  0  0  0  0
 15 24  1  0  0  0  0
 15 16  1  0  0  0  0
 16 17  2  0  0  0  0
 16 22  1  0  0  0  0
 17 18  1  0  0  0  0
 17 54  1  0  0  0  0
 18 19  1  0  0  0  0
 19 20  1  0  0  0  0
 19 21  2  0  0  0  0
 22 23  1  0  0  0  0
 22 25  1  0  0  0  0
 23 24  2  0  0  0  0
 23 55  1  0  0  0  0
 25 26  1  0  0  0  0
 25 56  1  0  0  0  0
 25 57  1  0  0  0  0
 26 31  2  0  0  0  0
 26 27  1  0  0  0  0
 27 28  2  0  0  0  0
 27 58  1  0  0  0  0
 28 29  1  0  0  0  0
 28 59  1  0  0  0  0
 29 30  2  0  0  0  0
 29 60  1  0  0  0  0
 30 31  1  0  0  0  0
 30 61  1  0  0  0  0
 31 62  1  0  0  0  0
 32 33  2  0  0  0  0
 32 34  2  0  0  0  0
 32 35  1  0  0  0  0
 35 39  1  0  0  0  0
 35 36  1  0  0  0  0
 36 37  1  0  0  0  0
 36 63  1  0  0  0  0
 36 64  1  0  0  0  0
 37 38  1  0  0  0  0
 37 65  1  0  0  0  0
 37 66  1  0  0  0  0
 38 39  1  0  0  0  0
 38 40  1  0  0  0  0
 38 67  1  0  0  0  0
 39 68  1  0  0  0  0
 39 69  1  0  0  0  0
 40 41  1  0  0  0  0
 40 42  1  0  0  0  0
 40 76  1  0  0  0  0
 41 70  1  0  0  0  0
 41 71  1  0  0  0  0
 41 72  1  0  0  0  0
 42 73  1  0  0  0  0
 42 74  1  0  0  0  0
 42 75  1  0  0  0  0
M  CHG  1  40   1
M  END
$$$$
CHEMBL150168
  -OEChem-07121202283D

 76 81  0     1  0  0  0  0  0999 V2000
   -0.0187    1.5258    0.0104 C   0  0  0  0  0  0  0  0  0  0  0  0
    0.0021   -0.0041    0.0020 C   0  0  0  0  0  0  0  0  0  0  0  0
    0.7182   -0.4975   -1.2568 C   0  0  0  0  0  0  0  0  0  0  0  0
    0.7376   -1.9263   -1.2646 O   0  0  0  0  0  0  0  0  0  0  0  0
    1.3407   -2.5288   -2.3214 C   0  0  0  0  0  0  0  0  0  0  0  0
    1.9081   -1.7631   -3.3282 C   0  0  0  0  0  0  0  0  0  0  0  0
    2.5218   -2.3773   -4.4025 C   0  0  0  0  0  0  0  0  0  0  0  0
    2.5748   -3.7585   -4.4815 C   0  0  0  0  0  0  0  0  0  0  0  0
    2.0147   -4.5335   -3.4874 C   0  0  0  0  0  0  0  0  0  0  0  0
    1.3972   -3.9247   -2.3955 C   0  0  0  0  0  0  0  0  0  0  0  0
    0.7995   -4.7518   -1.3220 C   0  0  0  0  0  0  0  0  0  0  0  0
    0.8747   -6.0653   -1.4198 N   0  0  0  0  0  0  0  0  0  0  0  0
    0.3453   -6.8490   -0.4666 C   0  0  0  0  0  0  0  0  0  0  0  0
    0.4123   -8.2406   -0.5470 C   0  0  0  0  0  0  0  0  0  0  0  0
   -0.1486   -9.0138    0.4621 C   0  0  0  0  0  0  0  0  0  0  0  0
   -0.7834   -8.3953    1.5636 C   0  0  0  0  0  0  0  0  0  0  0  0
   -0.8551   -7.0220    1.6528 C   0  0  0  0  0  0  0  0  0  0  0  0
   -0.2944   -6.2351    0.6437 C   0  0  0  0  0  0  0  0  0  0  0  0
   -0.3429   -4.8206    0.6919 C   0  0  0  0  0  0  0  0  0  0  0  0
    0.2125   -4.1379   -0.2942 N   0  0  0  0  0  0  0  0  0  0  0  0
   -0.9398   -4.1830    1.7252 O   0  5  0  0  0  0  0  0  0  0  0  0
   -1.2269   -9.4282    2.3730 N   0  0  0  0  0  0  0  0  0  0  0  0
   -0.8682  -10.5946    1.7728 C   0  0  0  0  0  0  0  0  0  0  0  0
   -0.2398  -10.3555    0.6592 N   0  0  0  0  0  0  0  0  0  0  0  0
   -1.9478   -9.2898    3.6408 C   0  0  0  0  0  0  0  0  0  0  0  0
   -3.4218   -9.1375    3.3664 C   0  0  0  0  0  0  0  0  0  0  0  0
   -3.9639   -7.8795    3.1808 C   0  0  0  0  0  0  0  0  0  0  0  0
   -5.3159   -7.7398    2.9291 C   0  0  0  0  0  0  0  0  0  0  0  0
   -6.1258   -8.8581    2.8626 C   0  0  0  0  0  0  0  0  0  0  0  0
   -5.5835  -10.1161    3.0473 C   0  0  0  0  0  0  0  0  0  0  0  0
   -4.2307  -10.2562    3.2947 C   0  0  0  0  0  0  0  0  0  0  0  0
    3.3601   -4.5293   -5.8576 S   0  0  0  0  0  0  0  0  0  0  0  0
    2.7982   -5.8296   -5.9699 O   0  0  0  0  0  0  0  0  0  0  0  0
    3.3260   -3.5900   -6.9233 O   0  0  0  0  0  0  0  0  0  0  0  0
    4.9543   -4.7354   -5.4593 N   0  0  3  0  0  0  0  0  0  0  0  0
    6.0311   -3.7650   -5.7047 C   0  0  0  0  0  0  0  0  0  0  0  0
    7.3333   -4.3740   -5.1435 C   0  0  0  0  0  0  0  0  0  0  0  0
    6.8158   -5.4071   -4.1080 C   0  0  1  0  0  0  0  0  0  0  0  0
    5.5275   -5.9196   -4.7941 C   0  0  0  0  0  0  0  0  0  0  0  0
    7.7843   -6.4956   -3.9209 N   0  3  0  0  0  0  0  0  0  0  0  0
    9.0451   -5.9459   -3.4051 C   0  0  0  0  0  0  0  0  0  0  0  0
    7.2465   -7.4702   -2.9622 C   0  0  0  0  0  0  0  0  0  0  0  0
    1.0039    1.9031    0.0027 H   0  0  0  0  0  0  0  0  0  0  0  0
   -0.5459    1.8868   -0.8726 H   0  0  0  0  0  0  0  0  0  0  0  0
   -0.5289    1.8773    0.9072 H   0  0  0  0  0  0  0  0  0  0  0  0
    0.5293   -0.3651    0.8851 H   0  0  0  0  0  0  0  0  0  0  0  0
   -1.0205   -0.3814    0.0098 H   0  0  0  0  0  0  0  0  0  0  0  0
    0.1910   -0.1364   -2.1398 H   0  0  0  0  0  0  0  0  0  0  0  0
    1.7408   -0.1202   -1.2645 H   0  0  0  0  0  0  0  0  0  0  0  0
    1.8698   -0.6852   -3.2728 H   0  0  0  0  0  0  0  0  0  0  0  0
    2.9622   -1.7771   -5.1849 H   0  0  0  0  0  0  0  0  0  0  0  0
    2.0578   -5.6106   -3.5528 H   0  0  0  0  0  0  0  0  0  0  0  0
    0.8968   -8.7136   -1.3884 H   0  0  0  0  0  0  0  0  0  0  0  0
   -1.3414   -6.5569    2.4976 H   0  0  0  0  0  0  0  0  0  0  0  0
   -1.0751  -11.5793    2.1651 H   0  0  0  0  0  0  0  0  0  0  0  0
   -1.7818  -10.1770    4.2519 H   0  0  0  0  0  0  0  0  0  0  0  0
   -1.5842   -8.4099    4.1714 H   0  0  0  0  0  0  0  0  0  0  0  0
   -3.3312   -7.0058    3.2328 H   0  0  0  0  0  0  0  0  0  0  0  0
   -5.7396   -6.7569    2.7849 H   0  0  0  0  0  0  0  0  0  0  0  0
   -7.1823   -8.7488    2.6667 H   0  0  0  0  0  0  0  0  0  0  0  0
   -6.2163  -10.9898    2.9956 H   0  0  0  0  0  0  0  0  0  0  0  0
   -3.8064  -11.2393    3.4353 H   0  0  0  0  0  0  0  0  0  0  0  0
    6.1353   -3.5898   -6.7755 H   0  0  0  0  0  0  0  0  0  0  0  0
    5.8096   -2.8282   -5.1935 H   0  0  0  0  0  0  0  0  0  0  0  0
    7.8989   -4.8693   -5.9327 H   0  0  0  0  0  0  0  0  0  0  0  0
    7.9380   -3.6092   -4.6561 H   0  0  0  0  0  0  0  0  0  0  0  0
    6.5834   -4.9254   -3.1582 H   0  0  0  0  0  0  0  0  0  0  0  0
    4.8321   -6.3115   -4.0518 H   0  0  0  0  0  0  0  0  0  0  0  0
    5.7714   -6.6867   -5.5290 H   0  0  0  0  0  0  0  0  0  0  0  0
    9.7638   -6.7536   -3.2662 H   0  0  0  0  0  0  0  0  0  0  0  0
    9.4442   -5.2228   -4.1164 H   0  0  0  0  0  0  0  0  0  0  0  0
    8.8630   -5.4535   -2.4499 H   0  0  0  0  0  0  0  0  0  0  0  0
    6.3109   -7.8780   -3.3450 H   0  0  0  0  0  0  0  0  0  0  0  0
    7.9651   -8.2779   -2.8234 H   0  0  0  0  0  0  0  0  0  0  0  0
    7.0643   -6.9777   -2.0070 H   0  0  0  0  0  0  0  0  0  0  0  0
    7.9529   -6.9515   -4.8051 H   0  0  0  0  0  0  0  0  0  0  0  0
  1  2  1  0  0  0  0
  1 43  1  0  0  0  0
  1 44  1  0  0  0  0
  1 45  1  0  0  0  0
  2  3  1  0  0  0  0
  2 46  1  0  0  0  0
  2 47  1  0  0  0  0
  3  4  1  0  0  0  0
  3 48  1  0  0  0  0
  3 49  1  0  0  0  0
  4  5  1  0  0  0  0
  5 10  2  0  0  0  0
  5  6  1  0  0  0  0
  6  7  2  0  0  0  0
  6 50  1  0  0  0  0
  7  8  1  0  0  0  0
  7 51  1  0  0  0  0
  8  9  2  0  0  0  0
  8 32  1  0  0  0  0
  9 10  1  0  0  0  0
  9 52  1  0  0  0  0
 10 11  1  0  0  0  0
 11 20  2  0  0  0  0
 11 12  1  0  0  0  0
 12 13  2  0  0  0  0
 13 18  1  0  0  0  0
 13 14  1  0  0  0  0
 14 15  2  0  0  0  0
 14 53  1  0  0  0  0
 15 24  1  0  0  0  0
 15 16  1  0  0  0  0
 16 17  2  0  0  0  0
 16 22  1  0  0  0  0
 17 18  1  0  0  0  0
 17 54  1  0  0  0  0
 18 19  2  0  0  0  0
 19 20  1  0  0  0  0
 19 21  1  0  0  0  0
 22 23  1  0  0  0  0
 22 25  1  0  0  0  0
 23 24  2  0  0  0  0
 23 55  1  0  0  0  0
 25 26  1  0  0  0  0
 25 56  1  0  0  0  0
 25 57  1  0  0  0  0
 26 31  2  0  0  0  0
 26 27  1  0  0  0  0
 27 28  2  0  0  0  0
 27 58  1  0  0  0  0
 28 29  1  0  0  0  0
 28 59  1  0  0  0  0
 29 30  2  0  0  0  0
 29 60  1  0  0  0  0
 30 31  1  0  0  0  0
 30 61  1  0  0  0  0
 31 62  1  0  0  0  0
 32 33  2  0  0  0  0
 32 34  2  0  0  0  0
 32 35  1  0  0  0  0
 35 39  1  0  0  0  0
 35 36  1  0  0  0  0
 36 37  1  0  0  0  0
 36 63  1  0  0  0  0
 36 64  1  0  0  0  0
 37 38  1  0  0  0  0
 37 65  1  0  0  0  0
 37 66  1  0  0  0  0
 38 39  1  0  0  0  0
 38 40  1  0  0  0  0
 38 67  1  0  0  0  0
 39 68  1  0  0  0  0
 39 69  1  0  0  0  0
 40 41  1  0  0  0  0
 40 42  1  0  0  0  0
 40 76  1  0  0  0  0
 41 70  1  0  0  0  0
 41 71  1  0  0  0  0
 41 72  1  0  0  0  0
 42 73  1  0  0  0  0
 42 74  1  0  0  0  0
 42 75  1  0  0  0  0
M  CHG  2  21  -1  40   1
M  END
$$$$
CHEMBL18965
  -OEChem-07121202283D

 52 55  0     0  0  0  0  0  0999 V2000
   -0.0187    1.5258    0.0104 C   0  0  0  0  0  0  0  0  0  0  0  0
    0.0021   -0.0041    0.0020 C   0  0  0  0  0  0  0  0  0  0  0  0
    0.7182   -0.4975   -1.2568 C   0  0  0  0  0  0  0  0  0  0  0  0
    0.7390   -2.0273   -1.2652 C   0  0  0  0  0  0  0  0  0  0  0  0
    1.4551   -2.5207   -2.5240 C   0  0  0  0  0  0  0  0  0  0  0  0
    1.4758   -4.0506   -2.5324 C   0  0  0  0  0  0  0  0  0  0  0  0
    2.1812   -4.5366   -3.7723 C   0  0  0  0  0  0  0  0  0  0  0  0
    1.8637   -4.2063   -4.9980 N   0  0  0  0  0  0  0  0  0  0  0  0
    3.6742   -5.7636   -3.0136 H   0  0  0  0  0  0  0  0  0  0  0  0
    2.6882   -4.8118   -5.8582 C   0  0  0  0  0  0  0  0  0  0  0  0
    3.5783   -5.5693   -5.1109 C   0  0  0  0  0  0  0  0  0  0  0  0
    3.2376   -5.3722   -3.7863 N   0  0  0  0  0  0  0  0  0  0  0  0
    4.5716   -6.3220   -5.7720 C   0  0  0  0  0  0  0  0  0  0  0  0
    5.3602   -6.9903   -5.1279 O   0  0  0  0  0  0  0  0  0  0  0  0
    4.6460   -6.3007   -7.1146 N   0  0  0  0  0  0  0  0  0  0  0  0
    3.7612   -5.5482   -7.8712 C   0  0  0  0  0  0  0  0  0  0  0  0
    3.7213   -5.4407   -9.1738 N   0  3  0  0  0  0  0  0  0  0  0  0
    2.6397   -4.5491   -9.5747 C   0  0  0  0  0  0  0  0  0  0  0  0
    3.1714   -3.3402  -10.3575 C   0  0  0  0  0  0  0  0  0  0  0  0
    2.9210   -3.7141  -11.8414 C   0  0  0  0  0  0  0  0  0  0  0  0
    1.5610   -4.4547  -11.7853 C   0  0  0  0  0  0  0  0  0  0  0  0
    1.6233   -5.2630  -10.4705 C   0  0  0  0  0  0  0  0  0  0  0  0
    1.9922   -4.1029   -8.2590 C   0  0  0  0  0  0  0  0  0  0  0  0
    2.7915   -4.8095   -7.2410 N   0  0  0  0  0  0  0  0  0  0  0  0
    5.6816   -7.0867   -7.7899 C   0  0  0  0  0  0  0  0  0  0  0  0
    1.0039    1.9031    0.0027 H   0  0  0  0  0  0  0  0  0  0  0  0
   -0.5459    1.8868   -0.8726 H   0  0  0  0  0  0  0  0  0  0  0  0
   -0.5289    1.8773    0.9072 H   0  0  0  0  0  0  0  0  0  0  0  0
    0.5293   -0.3651    0.8851 H   0  0  0  0  0  0  0  0  0  0  0  0
   -1.0205   -0.3814    0.0098 H   0  0  0  0  0  0  0  0  0  0  0  0
    0.1910   -0.1364   -2.1398 H   0  0  0  0  0  0  0  0  0  0  0  0
    1.7408   -0.1202   -1.2645 H   0  0  0  0  0  0  0  0  0  0  0  0
    1.2661   -2.3884   -0.3821 H   0  0  0  0  0  0  0  0  0  0  0  0
   -0.2836   -2.4046   -1.2575 H   0  0  0  0  0  0  0  0  0  0  0  0
    0.9279   -2.1597   -3.4071 H   0  0  0  0  0  0  0  0  0  0  0  0
    2.4777   -2.1435   -2.5317 H   0  0  0  0  0  0  0  0  0  0  0  0
    2.0030   -4.4117   -1.6494 H   0  0  0  0  0  0  0  0  0  0  0  0
    0.4533   -4.4279   -2.5247 H   0  0  0  0  0  0  0  0  0  0  0  0
    2.6180   -2.4395  -10.0918 H   0  0  0  0  0  0  0  0  0  0  0  0
    4.2368   -3.2038  -10.1724 H   0  0  0  0  0  0  0  0  0  0  0  0
    2.8475   -2.8183  -12.4580 H   0  0  0  0  0  0  0  0  0  0  0  0
    3.7053   -4.3749  -12.2106 H   0  0  0  0  0  0  0  0  0  0  0  0
    0.7385   -3.7400  -11.7551 H   0  0  0  0  0  0  0  0  0  0  0  0
    1.4552   -5.1234  -12.6396 H   0  0  0  0  0  0  0  0  0  0  0  0
    1.9532   -6.2820  -10.6728 H   0  0  0  0  0  0  0  0  0  0  0  0
    0.6444   -5.2741   -9.9911 H   0  0  0  0  0  0  0  0  0  0  0  0
    2.0760   -3.0233   -8.1346 H   0  0  0  0  0  0  0  0  0  0  0  0
    0.9494   -4.4173   -8.2164 H   0  0  0  0  0  0  0  0  0  0  0  0
    6.2823   -7.6110   -7.0467 H   0  0  0  0  0  0  0  0  0  0  0  0
    5.2118   -7.8118   -8.4545 H   0  0  0  0  0  0  0  0  0  0  0  0
    6.3210   -6.4223   -8.3710 H   0  0  0  0  0  0  0  0  0  0  0  0
    4.3254   -5.8896   -9.7858 H   0  0  0  0  0  0  0  0  0  0  0  0
  1  2  1  0  0  0  0
  1 26  1  0  0  0  0
  1 27  1  0  0  0  0
  1 28  1  0  0  0  0
  2  3  1  0  0  0  0
  2 29  1  0  0  0  0
  2 30  1  0  0  0  0
  3  4  1  0  0  0  0
  3 31  1  0  0  0  0
  3 32  1  0  0  0  0
  4  5  1  0  0  0  0
  4 33  1  0  0  0  0
  4 34  1  0  0  0  0
  5  6  1  0  0  0  0
  5 35  1  0  0  0  0
  5 36  1  0  0  0  0
  6 37  1  0  0  0  0
  6 38  1  0  0  0  0
  6  7  1  0  0  0  0
  7  8  2  0  0  0  0
  7 12  1  0  0  0  0
  8 10  1  0  0  0  0
  9 12  1  0  0  0  0
 10 24  1  0  0  0  0
 10 11  2  0  0  0  0
 11 13  1  0  0  0  0
 11 12  1  0  0  0  0
 13 14  2  0  0  0  0
 13 15  1  0  0  0  0
 15 16  1  0  0  0  0
 15 25  1  0  0  0  0
 16 24  1  0  0  0  0
 16 17  2  0  0  0  0
 17 18  1  0  0  0  0
 17 52  1  0  0  0  0
 18 22  1  0  0  0  0
 18 19  1  0  0  0  0
 18 23  1  0  0  0  0
 19 20  1  0  0  0  0
 19 39  1  0  0  0  0
 19 40  1  0  0  0  0
 20 21  1  0  0  0  0
 20 41  1  0  0  0  0
 20 42  1  0  0  0  0
 21 22  1  0  0  0  0
 21 43  1  0  0  0  0
 21 44  1  0  0  0  0
 22 45  1  0  0  0  0
 22 46  1  0  0  0  0
 23 24  1  0  0  0  0
 23 47  1  0  0  0  0
 23 48  1  0  0  0  0
 25 49  1  0  0  0  0
 25 50  1  0  0  0  0
 25 51  1  0  0  0  0
M  CHG  1  17   1
M  END
$$$$
CHEMBL18965
  -OEChem-07121202283D

 53 56  0     0  0  0  0  0  0999 V2000
   -0.0187    1.5258    0.0104 C   0  0  0  0  0  0  0  0  0  0  0  0
    0.0021   -0.0041    0.0020 C   0  0  0  0  0  0  0  0  0  0  0  0
    0.7182   -0.4975   -1.2568 C   0  0  0  0  0  0  0  0  0  0  0  0
    0.7390   -2.0273   -1.2652 C   0  0  0  0  0  0  0  0  0  0  0  0
    1.4551   -2.5207   -2.5240 C   0  0  0  0  0  0  0  0  0  0  0  0
    1.4758   -4.0506   -2.5324 C   0  0  0  0  0  0  0  0  0  0  0  0
    2.1812   -4.5366   -3.7723 C   0  0  0  0  0  0  0  0  0  0  0  0
    3.4654   -4.7698   -3.8659 N   0  3  0  0  0  0  0  0  0  0  0  0
    0.6392   -4.7164   -5.1507 H   0  0  0  0  0  0  0  0  0  0  0  0
    3.7609   -5.1882   -5.1004 C   0  0  0  0  0  0  0  0  0  0  0  0
    2.5752   -5.2160   -5.8201 C   0  0  0  0  0  0  0  0  0  0  0  0
    1.5844   -4.8022   -4.9502 N   0  0  0  0  0  0  0  0  0  0  0  0
    2.5943   -5.6252   -7.1700 C   0  0  0  0  0  0  0  0  0  0  0  0
    1.5602   -5.6554   -7.8129 O   0  0  0  0  0  0  0  0  0  0  0  0
    3.7561   -5.9815   -7.7460 N   0  0  0  0  0  0  0  0  0  0  0  0
    4.9469   -5.9565   -7.0367 C   0  0  0  0  0  0  0  0  0  0  0  0
    6.1383   -6.2731   -7.4724 N   0  3  0  0  0  0  0  0  0  0  0  0
    7.1243   -6.1127   -6.4105 C   0  0  0  0  0  0  0  0  0  0  0  0
    7.8329   -7.4385   -6.0991 C   0  0  0  0  0  0  0  0  0  0  0  0
    9.1783   -7.3335   -6.8628 C   0  0  0  0  0  0  0  0  0  0  0  0
    9.5541   -5.8396   -6.6951 C   0  0  0  0  0  0  0  0  0  0  0  0
    8.2038   -5.0957   -6.7924 C   0  0  0  0  0  0  0  0  0  0  0  0
    6.3196   -5.6286   -5.1992 C   0  0  0  0  0  0  0  0  0  0  0  0
    4.9424   -5.5627   -5.7221 N   0  0  0  0  0  0  0  0  0  0  0  0
    3.7634   -6.4043   -9.1487 C   0  0  0  0  0  0  0  0  0  0  0  0
    1.0039    1.9031    0.0027 H   0  0  0  0  0  0  0  0  0  0  0  0
   -0.5459    1.8868   -0.8726 H   0  0  0  0  0  0  0  0  0  0  0  0
   -0.5289    1.8773    0.9072 H   0  0  0  0  0  0  0  0  0  0  0  0
    0.5293   -0.3651    0.8851 H   0  0  0  0  0  0  0  0  0  0  0  0
   -1.0205   -0.3814    0.0098 H   0  0  0  0  0  0  0  0  0  0  0  0
    0.1910   -0.1364   -2.1398 H   0  0  0  0  0  0  0  0  0  0  0  0
    1.7408   -0.1202   -1.2645 H   0  0  0  0  0  0  0  0  0  0  0  0
    1.2661   -2.3884   -0.3821 H   0  0  0  0  0  0  0  0  0  0  0  0
   -0.2836   -2.4046   -1.2575 H   0  0  0  0  0  0  0  0  0  0  0  0
    0.9279   -2.1597   -3.4071 H   0  0  0  0  0  0  0  0  0  0  0  0
    2.4777   -2.1435   -2.5317 H   0  0  0  0  0  0  0  0  0  0  0  0
    2.0030   -4.4117   -1.6494 H   0  0  0  0  0  0  0  0  0  0  0  0
    0.4533   -4.4279   -2.5247 H   0  0  0  0  0  0  0  0  0  0  0  0
    8.0083   -7.5356   -5.0277 H   0  0  0  0  0  0  0  0  0  0  0  0
    7.2480   -8.2805   -6.4694 H   0  0  0  0  0  0  0  0  0  0  0  0
    9.9323   -7.9748   -6.4063 H   0  0  0  0  0  0  0  0  0  0  0  0
    9.0449   -7.5821   -7.9157 H   0  0  0  0  0  0  0  0  0  0  0  0
   10.0143   -5.6690   -5.7219 H   0  0  0  0  0  0  0  0  0  0  0  0
   10.2228   -5.5223   -7.4953 H   0  0  0  0  0  0  0  0  0  0  0  0
    8.0428   -4.7437   -7.8114 H   0  0  0  0  0  0  0  0  0  0  0  0
    8.1885   -4.2552   -6.0986 H   0  0  0  0  0  0  0  0  0  0  0  0
    6.3876   -6.3444   -4.3800 H   0  0  0  0  0  0  0  0  0  0  0  0
    6.6581   -4.6428   -4.8803 H   0  0  0  0  0  0  0  0  0  0  0  0
    2.7491   -6.3637   -9.5457 H   0  0  0  0  0  0  0  0  0  0  0  0
    4.4062   -5.7391   -9.7253 H   0  0  0  0  0  0  0  0  0  0  0  0
    4.1405   -7.4246   -9.2186 H   0  0  0  0  0  0  0  0  0  0  0  0
    6.3376   -6.5725   -8.3733 H   0  0  0  0  0  0  0  0  0  0  0  0
    4.1068   -4.6557   -3.1472 H   0  0  0  0  0  0  0  0  0  0  0  0
  1  2  1  0  0  0  0
  1 26  1  0  0  0  0
  1 27  1  0  0  0  0
  1 28  1  0  0  0  0
  2  3  1  0  0  0  0
  2 29  1  0  0  0  0
  2 30  1  0  0  0  0
  3  4  1  0  0  0  0
  3 31  1  0  0  0  0
  3 32  1  0  0  0  0
  4  5  1  0  0  0  0
  4 33  1  0  0  0  0
  4 34  1  0  0  0  0
  5  6  1  0  0  0  0
  5 35  1  0  0  0  0
  5 36  1  0  0  0  0
  6 37  1  0  0  0  0
  6 38  1  0  0  0  0
  6  7  1  0  0  0  0
  7  8  2  0  0  0  0
  7 12  1  0  0  0  0
  8 10  1  0  0  0  0
  8 53  1  0  0  0  0
  9 12  1  0  0  0  0
 10 24  1  0  0  0  0
 10 11  2  0  0  0  0
 11 13  1  0  0  0  0
 11 12  1  0  0  0  0
 13 14  2  0  0  0  0
 13 15  1  0  0  0  0
 15 16  1  0  0  0  0
 15 25  1  0  0  0  0
 16 24  1  0  0  0  0
 16 17  2  0  0  0  0
 17 18  1  0  0  0  0
 17 52  1  0  0  0  0
 18 22  1  0  0  0  0
 18 19  1  0  0  0  0
 18 23  1  0  0  0  0
 19 20  1  0  0  0  0
 19 39  1  0  0  0  0
 19 40  1  0  0  0  0
 20 21  1  0  0  0  0
 20 41  1  0  0  0  0
 20 42  1  0  0  0  0
 21 22  1  0  0  0  0
 21 43  1  0  0  0  0
 21 44  1  0  0  0  0
 22 45  1  0  0  0  0
 22 46  1  0  0  0  0
 23 24  1  0  0  0  0
 23 47  1  0  0  0  0
 23 48  1  0  0  0  0
 25 49  1  0  0  0  0
 25 50  1  0  0  0  0
 25 51  1  0  0  0  0
M  CHG  2   8   1  17   1
M  END
$$$$
CHEMBL18965
  -OEChem-07121202283D

 52 55  0     0  0  0  0  0  0999 V2000
   -0.0187    1.5258    0.0104 C   0  0  0  0  0  0  0  0  0  0  0  0
    0.0021   -0.0041    0.0020 C   0  0  0  0  0  0  0  0  0  0  0  0
    0.7182   -0.4975   -1.2568 C   0  0  0  0  0  0  0  0  0  0  0  0
    0.7390   -2.0273   -1.2652 C   0  0  0  0  0  0  0  0  0  0  0  0
    1.4551   -2.5207   -2.5240 C   0  0  0  0  0  0  0  0  0  0  0  0
    1.4758   -4.0506   -2.5324 C   0  0  0  0  0  0  0  0  0  0  0  0
    2.1812   -4.5366   -3.7723 C   0  0  0  0  0  0  0  0  0  0  0  0
    3.2448   -5.3916   -3.7891 N   0  0  0  0  0  0  0  0  0  0  0  0
    3.6736   -5.7883   -3.0147 H   0  0  0  0  0  0  0  0  0  0  0  0
    3.5943   -5.5864   -5.0892 C   0  0  0  0  0  0  0  0  0  0  0  0
    2.7150   -4.8289   -5.8492 C   0  0  0  0  0  0  0  0  0  0  0  0
    1.8664   -4.2099   -4.9921 N   0  0  0  0  0  0  0  0  0  0  0  0
    2.8564   -4.8467   -7.3053 C   0  0  0  0  0  0  0  0  0  0  0  0
    2.1032   -4.1961   -8.0062 O   0  0  0  0  0  0  0  0  0  0  0  0
    3.8304   -5.5917   -7.8591 N   0  0  0  0  0  0  0  0  0  0  0  0
    4.6983   -6.3391   -7.0780 C   0  0  0  0  0  0  0  0  0  0  0  0
    5.6808   -7.0947   -7.4978 N   0  3  0  0  0  0  0  0  0  0  0  0
    6.3605   -7.7158   -6.3678 C   0  0  0  0  0  0  0  0  0  0  0  0
    6.2990   -9.2475   -6.4497 C   0  0  0  0  0  0  0  0  0  0  0  0
    7.6803   -9.6484   -7.0293 C   0  0  0  0  0  0  0  0  0  0  0  0
    8.6429   -8.6379   -6.3559 C   0  0  0  0  0  0  0  0  0  0  0  0
    7.8389   -7.3197   -6.3122 C   0  0  0  0  0  0  0  0  0  0  0  0
    5.6104   -7.2066   -5.1324 C   0  0  0  0  0  0  0  0  0  0  0  0
    4.5725   -6.3312   -5.7118 N   0  0  0  0  0  0  0  0  0  0  0  0
    3.9764   -5.6138   -9.3167 C   0  0  0  0  0  0  0  0  0  0  0  0
    1.0039    1.9031    0.0027 H   0  0  0  0  0  0  0  0  0  0  0  0
   -0.5459    1.8868   -0.8726 H   0  0  0  0  0  0  0  0  0  0  0  0
   -0.5289    1.8773    0.9072 H   0  0  0  0  0  0  0  0  0  0  0  0
    0.5293   -0.3651    0.8851 H   0  0  0  0  0  0  0  0  0  0  0  0
   -1.0205   -0.3814    0.0098 H   0  0  0  0  0  0  0  0  0  0  0  0
    0.1910   -0.1364   -2.1398 H   0  0  0  0  0  0  0  0  0  0  0  0
    1.7408   -0.1202   -1.2645 H   0  0  0  0  0  0  0  0  0  0  0  0
    1.2661   -2.3884   -0.3821 H   0  0  0  0  0  0  0  0  0  0  0  0
   -0.2836   -2.4046   -1.2575 H   0  0  0  0  0  0  0  0  0  0  0  0
    0.9279   -2.1597   -3.4071 H   0  0  0  0  0  0  0  0  0  0  0  0
    2.4777   -2.1435   -2.5317 H   0  0  0  0  0  0  0  0  0  0  0  0
    2.0030   -4.4117   -1.6494 H   0  0  0  0  0  0  0  0  0  0  0  0
    0.4533   -4.4279   -2.5247 H   0  0  0  0  0  0  0  0  0  0  0  0
    6.1614   -9.6780   -5.4578 H   0  0  0  0  0  0  0  0  0  0  0  0
    5.4980   -9.5626   -7.1185 H   0  0  0  0  0  0  0  0  0  0  0  0
    7.9350  -10.6702   -6.7482 H   0  0  0  0  0  0  0  0  0  0  0  0
    7.6931   -9.5304   -8.1128 H   0  0  0  0  0  0  0  0  0  0  0  0
    8.8944   -8.9649   -5.3470 H   0  0  0  0  0  0  0  0  0  0  0  0
    9.5457   -8.5144   -6.9541 H   0  0  0  0  0  0  0  0  0  0  0  0
    8.0925   -6.6978   -7.1707 H   0  0  0  0  0  0  0  0  0  0  0  0
    8.0484   -6.7840   -5.3863 H   0  0  0  0  0  0  0  0  0  0  0  0
    5.1566   -8.0349   -4.5883 H   0  0  0  0  0  0  0  0  0  0  0  0
    6.2767   -6.6372   -4.4843 H   0  0  0  0  0  0  0  0  0  0  0  0
    3.2168   -4.9753   -9.7676 H   0  0  0  0  0  0  0  0  0  0  0  0
    4.9666   -5.2478   -9.5882 H   0  0  0  0  0  0  0  0  0  0  0  0
    3.8545   -6.6347   -9.6786 H   0  0  0  0  0  0  0  0  0  0  0  0
    5.9222   -7.2233   -8.4284 H   0  0  0  0  0  0  0  0  0  0  0  0
  1  2  1  0  0  0  0
  1 26  1  0  0  0  0
  1 27  1  0  0  0  0
  1 28  1  0  0  0  0
  2  3  1  0  0  0  0
  2 29  1  0  0  0  0
  2 30  1  0  0  0  0
  3  4  1  0  0  0  0
  3 31  1  0  0  0  0
  3 32  1  0  0  0  0
  4  5  1  0  0  0  0
  4 33  1  0  0  0  0
  4 34  1  0  0  0  0
  5  6  1  0  0  0  0
  5 35  1  0  0  0  0
  5 36  1  0  0  0  0
  6  7  1  0  0  0  0
  6 37  1  0  0  0  0
  6 38  1  0  0  0  0
  7 12  2  0  0  0  0
  7  8  1  0  0  0  0
  8  9  1  0  0  0  0
  8 10  1  0  0  0  0
 10 24  1  0  0  0  0
 10 11  2  0  0  0  0
 11 12  1  0  0  0  0
 11 13  1  0  0  0  0
 13 14  2  0  0  0  0
 13 15  1  0  0  0  0
 15 16  1  0  0  0  0
 15 25  1  0  0  0  0
 16 24  1  0  0  0  0
 16 17  2  0  0  0  0
 17 18  1  0  0  0  0
 17 52  1  0  0  0  0
 18 22  1  0  0  0  0
 18 19  1  0  0  0  0
 18 23  1  0  0  0  0
 19 20  1  0  0  0  0
 19 39  1  0  0  0  0
 19 40  1  0  0  0  0
 20 21  1  0  0  0  0
 20 41  1  0  0  0  0
 20 42  1  0  0  0  0
 21 22  1  0  0  0  0
 21 43  1  0  0  0  0
 21 44  1  0  0  0  0
 22 45  1  0  0  0  0
 22 46  1  0  0  0  0
 23 24  1  0  0  0  0
 23 47  1  0  0  0  0
 23 48  1  0  0  0  0
 25 49  1  0  0  0  0
 25 50  1  0  0  0  0
 25 51  1  0  0  0  0
M  CHG  1  17   1
M  END
$$$$
CHEMBL569265
  -OEChem-07121202283D

 65 68  0     0  0  0  0  0  0999 V2000
   -0.0187    1.5258    0.0104 C   0  0  0  0  0  0  0  0  0  0  0  0
    0.0021   -0.0041    0.0020 C   0  0  0  0  0  0  0  0  0  0  0  0
    0.7182   -0.4975   -1.2568 C   0  0  0  0  0  0  0  0  0  0  0  0
    0.7376   -1.9263   -1.2646 O   0  0  0  0  0  0  0  0  0  0  0  0
    1.3873   -2.4925   -2.4045 C   0  0  0  0  0  0  0  0  0  0  0  0
    1.3486   -4.0190   -2.3077 C   0  0  0  0  0  0  0  0  0  0  0  0
   -0.0404   -4.4782   -2.3855 N   0  0  0  0  0  0  0  0  0  0  0  0
   -0.7994   -4.6151   -1.2378 C   0  0  0  0  0  0  0  0  0  0  0  0
   -0.2492   -4.3176    0.0047 C   0  0  0  0  0  0  0  0  0  0  0  0
   -1.0510   -4.4695    1.1355 C   0  0  0  0  0  0  0  0  0  0  0  0
   -2.3695   -4.9120    0.9826 C   0  0  0  0  0  0  0  0  0  0  0  0
   -2.8608   -5.1849   -0.2024 N   0  0  0  0  0  0  0  0  0  0  0  0
   -2.1331   -5.0552   -1.3150 C   0  0  0  0  0  0  0  0  0  0  0  0
   -2.6862   -5.3486   -2.5101 N   0  0  0  0  0  0  0  0  0  0  0  0
   -2.0014   -5.2326   -3.6195 C   0  0  0  0  0  0  0  0  0  0  0  0
   -0.6006   -4.7688   -3.5803 C   0  0  0  0  0  0  0  0  0  0  0  0
    0.0411   -4.6535   -4.6080 O   0  0  0  0  0  0  0  0  0  0  0  0
   -2.5923   -5.5396   -4.8297 N   0  0  0  0  0  0  0  0  0  0  0  0
   -3.9842   -5.9947   -4.8706 C   0  0  0  0  0  0  0  0  0  0  0  0
   -4.3839   -6.2606   -6.2991 C   0  0  0  0  0  0  0  0  0  0  0  0
   -3.5848   -6.0871   -7.1948 O   0  0  0  0  0  0  0  0  0  0  0  0
   -5.6295   -6.6912   -6.5813 N   0  0  0  0  0  0  0  0  0  0  0  0
   -6.6181   -6.9030   -5.5122 C   0  0  0  0  0  0  0  0  0  0  0  0
   -7.9101   -6.1730   -5.8968 C   0  0  0  0  0  0  0  0  0  0  0  0
   -8.3023   -6.5719   -7.2125 O   0  0  0  0  0  0  0  0  0  0  0  0
   -7.3611   -6.2300   -8.2327 C   0  0  0  0  0  0  0  0  0  0  0  0
   -6.0428   -6.9576   -7.9683 C   0  0  0  0  0  0  0  0  0  0  0  0
   -0.5128   -4.1663    2.4834 C   0  0  0  0  0  0  0  0  0  0  0  0
   -1.3144   -4.3238    3.6200 C   0  0  0  0  0  0  0  0  0  0  0  0
   -0.7688   -4.0288    4.8541 C   0  0  0  0  0  0  0  0  0  0  0  0
    0.5480   -3.5887    4.9269 C   0  0  0  0  0  0  0  0  0  0  0  0
    1.2796   -3.4502    3.8333 N   0  0  0  0  0  0  0  0  0  0  0  0
    0.7994   -3.7263    2.6374 C   0  0  0  0  0  0  0  0  0  0  0  0
    1.0899   -3.2968    6.1356 O   0  0  0  0  0  0  0  0  0  0  0  0
    2.4469   -2.8491    6.1472 C   0  0  0  0  0  0  0  0  0  0  0  0
    1.0039    1.9031    0.0027 H   0  0  0  0  0  0  0  0  0  0  0  0
   -0.5459    1.8868   -0.8726 H   0  0  0  0  0  0  0  0  0  0  0  0
   -0.5289    1.8773    0.9072 H   0  0  0  0  0  0  0  0  0  0  0  0
    0.5293   -0.3651    0.8851 H   0  0  0  0  0  0  0  0  0  0  0  0
   -1.0205   -0.3814    0.0098 H   0  0  0  0  0  0  0  0  0  0  0  0
    0.1910   -0.1364   -2.1398 H   0  0  0  0  0  0  0  0  0  0  0  0
    1.7408   -0.1202   -1.2645 H   0  0  0  0  0  0  0  0  0  0  0  0
    0.8740   -2.1729   -3.3114 H   0  0  0  0  0  0  0  0  0  0  0  0
    2.4238   -2.1566   -2.4361 H   0  0  0  0  0  0  0  0  0  0  0  0
    1.9203   -4.4498   -3.1297 H   0  0  0  0  0  0  0  0  0  0  0  0
    1.7828   -4.3340   -1.3589 H   0  0  0  0  0  0  0  0  0  0  0  0
    0.7724   -3.9781    0.0914 H   0  0  0  0  0  0  0  0  0  0  0  0
   -2.9936   -5.0314    1.8559 H   0  0  0  0  0  0  0  0  0  0  0  0
   -2.0856   -5.4539   -5.6524 H   0  0  0  0  0  0  0  0  0  0  0  0
   -4.0842   -6.9109   -4.2888 H   0  0  0  0  0  0  0  0  0  0  0  0
   -4.6308   -5.2246   -4.4498 H   0  0  0  0  0  0  0  0  0  0  0  0
   -6.8176   -7.9690   -5.4026 H   0  0  0  0  0  0  0  0  0  0  0  0
   -6.2355   -6.5022   -4.5736 H   0  0  0  0  0  0  0  0  0  0  0  0
   -8.6979   -6.4295   -5.1886 H   0  0  0  0  0  0  0  0  0  0  0  0
   -7.7393   -5.0966   -5.8785 H   0  0  0  0  0  0  0  0  0  0  0  0
   -7.7539   -6.5276   -9.2050 H   0  0  0  0  0  0  0  0  0  0  0  0
   -7.1883   -5.1539   -8.2229 H   0  0  0  0  0  0  0  0  0  0  0  0
   -5.2792   -6.5928   -8.6554 H   0  0  0  0  0  0  0  0  0  0  0  0
   -6.1833   -8.0292   -8.1101 H   0  0  0  0  0  0  0  0  0  0  0  0
   -2.3348   -4.6673    3.5340 H   0  0  0  0  0  0  0  0  0  0  0  0
   -1.3585   -4.1385    5.7523 H   0  0  0  0  0  0  0  0  0  0  0  0
    1.4284   -3.6058    1.7678 H   0  0  0  0  0  0  0  0  0  0  0  0
    3.0873   -3.6194    5.7175 H   0  0  0  0  0  0  0  0  0  0  0  0
    2.5331   -1.9353    5.5592 H   0  0  0  0  0  0  0  0  0  0  0  0
    2.7555   -2.6511    7.1737 H   0  0  0  0  0  0  0  0  0  0  0  0
  1  2  1  0  0  0  0
  1 36  1  0  0  0  0
  1 37  1  0  0  0  0
  1 38  1  0  0  0  0
  2  3  1  0  0  0  0
  2 39  1  0  0  0  0
  2 40  1  0  0  0  0
  3  4  1  0  0  0  0
  3 41  1  0  0  0  0
  3 42  1  0  0  0  0
  4  5  1  0  0  0  0
  5  6  1  0  0  0  0
  5 43  1  0  0  0  0
  5 44  1  0  0  0  0
  6  7  1  0  0  0  0
  6 45  1  0  0  0  0
  6 46  1  0  0  0  0
  7 16  1  0  0  0  0
  7  8  1  0  0  0  0
  8 13  2  0  0  0  0
  8  9  1  0  0  0  0
  9 10  2  0  0  0  0
  9 47  1  0  0  0  0
 10 11  1  0  0  0  0
 10 28  1  0  0  0  0
 11 12  2  0  0  0  0
 11 48  1  0  0  0  0
 12 13  1  0  0  0  0
 13 14  1  0  0  0  0
 14 15  2  0  0  0  0
 15 16  1  0  0  0  0
 15 18  1  0  0  0  0
 16 17  2  0  0  0  0
 18 19  1  0  0  0  0
 18 49  1  0  0  0  0
 19 20  1  0  0  0  0
 19 50  1  0  0  0  0
 19 51  1  0  0  0  0
 20 21  2  0  0  0  0
 20 22  1  0  0  0  0
 22 27  1  0  0  0  0
 22 23  1  0  0  0  0
 23 24  1  0  0  0  0
 23 52  1  0  0  0  0
 23 53  1  0  0  0  0
 24 25  1  0  0  0  0
 24 54  1  0  0  0  0
 24 55  1  0  0  0  0
 25 26  1  0  0  0  0
 26 27  1  0  0  0  0
 26 56  1  0  0  0  0
 26 57  1  0  0  0  0
 27 58  1  0  0  0  0
 27 59  1  0  0  0  0
 28 33  2  0  0  0  0
 28 29  1  0  0  0  0
 29 30  2  0  0  0  0
 29 60  1  0  0  0  0
 30 31  1  0  0  0  0
 30 61  1  0  0  0  0
 31 32  2  0  0  0  0
 31 34  1  0  0  0  0
 32 33  1  0  0  0  0
 33 62  1  0  0  0  0
 34 35  1  0  0  0  0
 35 63  1  0  0  0  0
 35 64  1  0  0  0  0
 35 65  1  0  0  0  0
M  END
$$$$
CHEMBL569264
  -OEChem-07121202283D

 68 71  0     0  0  0  0  0  0999 V2000
   -0.0187    1.5258    0.0104 C   0  0  0  0  0  0  0  0  0  0  0  0
    0.0021   -0.0041    0.0020 C   0  0  0  0  0  0  0  0  0  0  0  0
    0.7182   -0.4975   -1.2568 C   0  0  0  0  0  0  0  0  0  0  0  0
    0.7376   -1.9263   -1.2646 O   0  0  0  0  0  0  0  0  0  0  0  0
    1.3873   -2.4925   -2.4045 C   0  0  0  0  0  0  0  0  0  0  0  0
    1.3486   -4.0190   -2.3077 C   0  0  0  0  0  0  0  0  0  0  0  0
   -0.0404   -4.4782   -2.3855 N   0  0  0  0  0  0  0  0  0  0  0  0
   -0.7985   -4.6151   -1.2416 C   0  0  0  0  0  0  0  0  0  0  0  0
   -0.2676   -4.3226    0.0096 C   0  0  0  0  0  0  0  0  0  0  0  0
   -1.0732   -4.4766    1.1322 C   0  0  0  0  0  0  0  0  0  0  0  0
   -2.3312   -4.8964    1.0220 N   0  0  0  0  0  0  0  0  0  0  0  0
   -2.8751   -5.1844   -0.1385 C   0  0  0  0  0  0  0  0  0  0  0  0
   -2.1345   -5.0568   -1.3218 C   0  0  0  0  0  0  0  0  0  0  0  0
   -2.6890   -5.3508   -2.5140 N   0  0  0  0  0  0  0  0  0  0  0  0
   -2.0015   -5.2333   -3.6220 C   0  0  0  0  0  0  0  0  0  0  0  0
   -0.6020   -4.7693   -3.5802 C   0  0  0  0  0  0  0  0  0  0  0  0
    0.0399   -4.6535   -4.6077 O   0  0  0  0  0  0  0  0  0  0  0  0
   -2.5906   -5.5407   -4.8356 N   0  0  0  0  0  0  0  0  0  0  0  0
   -3.9821   -5.9969   -4.8797 C   0  0  0  0  0  0  0  0  0  0  0  0
   -4.3787   -6.2623   -6.3092 C   0  0  0  0  0  0  0  0  0  0  0  0
   -3.5779   -6.0875   -7.2031 O   0  0  0  0  0  0  0  0  0  0  0  0
   -5.6233   -6.6938   -6.5942 N   0  0  0  0  0  0  0  0  0  0  0  0
   -6.6063   -6.9043   -5.5227 C   0  0  0  0  0  0  0  0  0  0  0  0
   -7.8768   -6.1164   -5.8574 C   0  0  0  0  0  0  0  0  0  0  0  0
   -8.3691   -6.5176   -7.2498 C   0  0  0  0  0  0  0  0  0  0  0  0
   -7.2998   -6.1741   -8.2894 C   0  0  0  0  0  0  0  0  0  0  0  0
   -6.0247   -6.9568   -7.9829 C   0  0  0  0  0  0  0  0  0  0  0  0
   -9.5722   -5.8083   -7.5520 O   0  0  0  0  0  0  0  0  0  0  0  0
   -0.5220   -4.1688    2.4731 C   0  0  0  0  0  0  0  0  0  0  0  0
   -1.2760   -4.4203    3.6257 C   0  0  0  0  0  0  0  0  0  0  0  0
   -0.7199   -4.1169    4.8528 C   0  0  0  0  0  0  0  0  0  0  0  0
    0.5601   -3.5760    4.9035 C   0  0  0  0  0  0  0  0  0  0  0  0
    1.2467   -3.3498    3.7954 N   0  0  0  0  0  0  0  0  0  0  0  0
    0.7557   -3.6306    2.6051 C   0  0  0  0  0  0  0  0  0  0  0  0
    1.1121   -3.2757    6.1054 O   0  0  0  0  0  0  0  0  0  0  0  0
    2.4297   -2.7225    6.0941 C   0  0  0  0  0  0  0  0  0  0  0  0
    1.0039    1.9031    0.0027 H   0  0  0  0  0  0  0  0  0  0  0  0
   -0.5459    1.8868   -0.8726 H   0  0  0  0  0  0  0  0  0  0  0  0
   -0.5289    1.8773    0.9072 H   0  0  0  0  0  0  0  0  0  0  0  0
    0.5293   -0.3651    0.8851 H   0  0  0  0  0  0  0  0  0  0  0  0
   -1.0205   -0.3814    0.0098 H   0  0  0  0  0  0  0  0  0  0  0  0
    0.1910   -0.1364   -2.1398 H   0  0  0  0  0  0  0  0  0  0  0  0
    1.7408   -0.1202   -1.2645 H   0  0  0  0  0  0  0  0  0  0  0  0
    0.8740   -2.1729   -3.3114 H   0  0  0  0  0  0  0  0  0  0  0  0
    2.4238   -2.1566   -2.4361 H   0  0  0  0  0  0  0  0  0  0  0  0
    1.9203   -4.4498   -3.1297 H   0  0  0  0  0  0  0  0  0  0  0  0
    1.7828   -4.3340   -1.3589 H   0  0  0  0  0  0  0  0  0  0  0  0
    0.7526   -3.9821    0.1078 H   0  0  0  0  0  0  0  0  0  0  0  0
   -3.9000   -5.5223   -0.1812 H   0  0  0  0  0  0  0  0  0  0  0  0
   -2.0824   -5.4541   -5.6573 H   0  0  0  0  0  0  0  0  0  0  0  0
   -4.0825   -6.9136   -4.2986 H   0  0  0  0  0  0  0  0  0  0  0  0
   -4.6302   -5.2277   -4.4597 H   0  0  0  0  0  0  0  0  0  0  0  0
   -6.8436   -7.9655   -5.4478 H   0  0  0  0  0  0  0  0  0  0  0  0
   -6.1964   -6.5517   -4.5763 H   0  0  0  0  0  0  0  0  0  0  0  0
   -8.6481   -6.3399   -5.1204 H   0  0  0  0  0  0  0  0  0  0  0  0
   -7.6572   -5.0489   -5.8427 H   0  0  0  0  0  0  0  0  0  0  0  0
   -8.5649   -7.5897   -7.2708 H   0  0  0  0  0  0  0  0  0  0  0  0
   -7.6605   -6.4386   -9.2834 H   0  0  0  0  0  0  0  0  0  0  0  0
   -7.0857   -5.1060   -8.2518 H   0  0  0  0  0  0  0  0  0  0  0  0
   -5.2311   -6.6389   -8.6591 H   0  0  0  0  0  0  0  0  0  0  0  0
   -6.2135   -8.0224   -8.1131 H   0  0  0  0  0  0  0  0  0  0  0  0
   -9.9420   -6.0136   -8.4216 H   0  0  0  0  0  0  0  0  0  0  0  0
   -2.2683   -4.8410    3.5568 H   0  0  0  0  0  0  0  0  0  0  0  0
   -1.2730   -4.2974    5.7627 H   0  0  0  0  0  0  0  0  0  0  0  0
    1.3481   -3.4370    1.7231 H   0  0  0  0  0  0  0  0  0  0  0  0
    3.1157   -3.4275    5.6246 H   0  0  0  0  0  0  0  0  0  0  0  0
    2.4269   -1.7889    5.5316 H   0  0  0  0  0  0  0  0  0  0  0  0
    2.7513   -2.5292    7.1175 H   0  0  0  0  0  0  0  0  0  0  0  0
  1  2  1  0  0  0  0
  1 37  1  0  0  0  0
  1 38  1  0  0  0  0
  1 39  1  0  0  0  0
  2  3  1  0  0  0  0
  2 40  1  0  0  0  0
  2 41  1  0  0  0  0
  3  4  1  0  0  0  0
  3 42  1  0  0  0  0
  3 43  1  0  0  0  0
  4  5  1  0  0  0  0
  5  6  1  0  0  0  0
  5 44  1  0  0  0  0
  5 45  1  0  0  0  0
  6  7  1  0  0  0  0
  6 46  1  0  0  0  0
  6 47  1  0  0  0  0
  7 16  1  0  0  0  0
  7  8  1  0  0  0  0
  8 13  2  0  0  0  0
  8  9  1  0  0  0  0
  9 10  2  0  0  0  0
  9 48  1  0  0  0  0
 10 11  1  0  0  0  0
 10 29  1  0  0  0  0
 11 12  2  0  0  0  0
 12 13  1  0  0  0  0
 12 49  1  0  0  0  0
 13 14  1  0  0  0  0
 14 15  2  0  0  0  0
 15 16  1  0  0  0  0
 15 18  1  0  0  0  0
 16 17  2  0  0  0  0
 18 19  1  0  0  0  0
 18 50  1  0  0  0  0
 19 20  1  0  0  0  0
 19 51  1  0  0  0  0
 19 52  1  0  0  0  0
 20 21  2  0  0  0  0
 20 22  1  0  0  0  0
 22 27  1  0  0  0  0
 22 23  1  0  0  0  0
 23 24  1  0  0  0  0
 23 53  1  0  0  0  0
 23 54  1  0  0  0  0
 24 25  1  0  0  0  0
 24 55  1  0  0  0  0
 24 56  1  0  0  0  0
 25 26  1  0  0  0  0
 25 28  1  0  0  0  0
 25 57  1  0  0  0  0
 26 27  1  0  0  0  0
 26 58  1  0  0  0  0
 26 59  1  0  0  0  0
 27 60  1  0  0  0  0
 27 61  1  0  0  0  0
 28 62  1  0  0  0  0
 29 34  2  0  0  0  0
 29 30  1  0  0  0  0
 30 31  2  0  0  0  0
 30 63  1  0  0  0  0
 31 32  1  0  0  0  0
 31 64  1  0  0  0  0
 32 33  2  0  0  0  0
 32 35  1  0  0  0  0
 33 34  1  0  0  0  0
 34 65  1  0  0  0  0
 35 36  1  0  0  0  0
 36 66  1  0  0  0  0
 36 67  1  0  0  0  0
 36 68  1  0  0  0  0
M  END
$$$$
CHEMBL569045
  -OEChem-07121202283D

 58 61  0     0  0  0  0  0  0999 V2000
   -0.0187    1.5258    0.0104 C   0  0  0  0  0  0  0  0  0  0  0  0
    0.0021   -0.0041    0.0020 C   0  0  0  0  0  0  0  0  0  0  0  0
    0.7421   -0.5109    1.2415 C   0  0  0  0  0  0  0  0  0  0  0  0
    0.7614   -1.9398    1.2337 O   0  0  0  0  0  0  0  0  0  0  0  0
    1.4328   -2.5181    2.3548 C   0  0  0  0  0  0  0  0  0  0  0  0
    1.3920   -4.0434    2.2424 C   0  0  0  0  0  0  0  0  0  0  0  0
    2.1607   -4.4673    1.0694 N   0  0  0  0  0  0  0  0  0  0  0  0
    1.5482   -4.5891   -0.1642 C   0  0  0  0  0  0  0  0  0  0  0  0
    0.1925   -4.3099   -0.3031 C   0  0  0  0  0  0  0  0  0  0  0  0
   -0.3838   -4.4456   -1.5657 C   0  0  0  0  0  0  0  0  0  0  0  0
    0.4144   -4.8544   -2.6397 C   0  0  0  0  0  0  0  0  0  0  0  0
    1.6904   -5.1106   -2.4781 N   0  0  0  0  0  0  0  0  0  0  0  0
    2.2884   -4.9954   -1.2892 C   0  0  0  0  0  0  0  0  0  0  0  0
    3.6043   -5.2706   -1.1765 N   0  0  0  0  0  0  0  0  0  0  0  0
    4.2211   -5.1679   -0.0266 C   0  0  0  0  0  0  0  0  0  0  0  0
    3.4799   -4.7396    1.1760 C   0  0  0  0  0  0  0  0  0  0  0  0
    4.0474   -4.6369    2.2477 O   0  0  0  0  0  0  0  0  0  0  0  0
    5.5692   -5.4558    0.0607 N   0  0  0  0  0  0  0  0  0  0  0  0
    6.3074   -5.8756   -1.1331 C   0  0  0  0  0  0  0  0  0  0  0  0
    7.7484   -6.1264   -0.7703 C   0  0  0  0  0  0  0  0  0  0  0  0
    8.1727   -7.4085   -0.4676 C   0  0  0  0  0  0  0  0  0  0  0  0
    9.4362   -7.6284   -0.1500 N   0  0  0  0  0  0  0  0  0  0  0  0
   10.2948   -6.6241   -0.1213 C   0  0  0  0  0  0  0  0  0  0  0  0
    9.8706   -5.3425   -0.4239 C   0  0  0  0  0  0  0  0  0  0  0  0
    8.6079   -5.1233   -0.7465 N   0  0  0  0  0  0  0  0  0  0  0  0
   -1.8248   -4.1608   -1.7675 C   0  0  0  0  0  0  0  0  0  0  0  0
   -2.4061   -4.3021   -3.0330 C   0  0  0  0  0  0  0  0  0  0  0  0
   -3.7521   -4.0251   -3.1717 C   0  0  0  0  0  0  0  0  0  0  0  0
   -4.4800   -3.6184   -2.0592 C   0  0  0  0  0  0  0  0  0  0  0  0
   -3.9007   -3.4946   -0.8763 N   0  0  0  0  0  0  0  0  0  0  0  0
   -2.6207   -3.7543   -0.6996 C   0  0  0  0  0  0  0  0  0  0  0  0
   -5.8022   -3.3444   -2.1885 O   0  0  0  0  0  0  0  0  0  0  0  0
   -6.4973   -2.9310   -1.0104 C   0  0  0  0  0  0  0  0  0  0  0  0
    1.0039    1.9031    0.0027 H   0  0  0  0  0  0  0  0  0  0  0  0
   -0.5459    1.8868   -0.8726 H   0  0  0  0  0  0  0  0  0  0  0  0
   -0.5289    1.8773    0.9072 H   0  0  0  0  0  0  0  0  0  0  0  0
   -1.0205   -0.3814    0.0098 H   0  0  0  0  0  0  0  0  0  0  0  0
    0.5123   -0.3556   -0.8948 H   0  0  0  0  0  0  0  0  0  0  0  0
    1.7647   -0.1336    1.2338 H   0  0  0  0  0  0  0  0  0  0  0  0
    0.2319   -0.1594    2.1383 H   0  0  0  0  0  0  0  0  0  0  0  0
    2.4697   -2.1825    2.3702 H   0  0  0  0  0  0  0  0  0  0  0  0
    0.9369   -2.2082    3.2747 H   0  0  0  0  0  0  0  0  0  0  0  0
    1.8250   -4.4856    3.1397 H   0  0  0  0  0  0  0  0  0  0  0  0
    0.3582   -4.3726    2.1376 H   0  0  0  0  0  0  0  0  0  0  0  0
   -0.3984   -3.9965    0.5448 H   0  0  0  0  0  0  0  0  0  0  0  0
   -0.0281   -4.9611   -3.6190 H   0  0  0  0  0  0  0  0  0  0  0  0
    6.0272   -5.3800    0.9124 H   0  0  0  0  0  0  0  0  0  0  0  0
    5.8677   -6.7911   -1.5288 H   0  0  0  0  0  0  0  0  0  0  0  0
    6.2540   -5.0911   -1.8879 H   0  0  0  0  0  0  0  0  0  0  0  0
    7.4710   -8.2291   -0.4907 H   0  0  0  0  0  0  0  0  0  0  0  0
   11.3275   -6.8038    0.1386 H   0  0  0  0  0  0  0  0  0  0  0  0
   10.5723   -4.5219   -0.4005 H   0  0  0  0  0  0  0  0  0  0  0  0
   -1.8164   -4.6195   -3.8803 H   0  0  0  0  0  0  0  0  0  0  0  0
   -4.2336   -4.1231   -4.1335 H   0  0  0  0  0  0  0  0  0  0  0  0
   -2.1838   -3.6466    0.2822 H   0  0  0  0  0  0  0  0  0  0  0  0
   -6.4332   -3.7157   -0.2565 H   0  0  0  0  0  0  0  0  0  0  0  0
   -6.0454   -2.0177   -0.6235 H   0  0  0  0  0  0  0  0  0  0  0  0
   -7.5436   -2.7445   -1.2525 H   0  0  0  0  0  0  0  0  0  0  0  0
  1  2  1  0  0  0  0
  1 34  1  0  0  0  0
  1 35  1  0  0  0  0
  1 36  1  0  0  0  0
  2  3  1  0  0  0  0
  2 37  1  0  0  0  0
  2 38  1  0  0  0  0
  3  4  1  0  0  0  0
  3 39  1  0  0  0  0
  3 40  1  0  0  0  0
  4  5  1  0  0  0  0
  5  6  1  0  0  0  0
  5 41  1  0  0  0  0
  5 42  1  0  0  0  0
  6  7  1  0  0  0  0
  6 43  1  0  0  0  0
  6 44  1  0  0  0  0
  7 16  1  0  0  0  0
  7  8  1  0  0  0  0
  8 13  2  0  0  0  0
  8  9  1  0  0  0  0
  9 10  2  0  0  0  0
  9 45  1  0  0  0  0
 10 11  1  0  0  0  0
 10 26  1  0  0  0  0
 11 12  2  0  0  0  0
 11 46  1  0  0  0  0
 12 13  1  0  0  0  0
 13 14  1  0  0  0  0
 14 15  2  0  0  0  0
 15 16  1  0  0  0  0
 15 18  1  0  0  0  0
 16 17  2  0  0  0  0
 18 19  1  0  0  0  0
 18 47  1  0  0  0  0
 19 20  1  0  0  0  0
 19 48  1  0  0  0  0
 19 49  1  0  0  0  0
 20 25  2  0  0  0  0
 20 21  1  0  0  0  0
 21 22  2  0  0  0  0
 21 50  1  0  0  0  0
 22 23  1  0  0  0  0
 23 24  2  0  0  0  0
 23 51  1  0  0  0  0
 24 25  1  0  0  0  0
 24 52  1  0  0  0  0
 26 31  2  0  0  0  0
 26 27  1  0  0  0  0
 27 28  2  0  0  0  0
 27 53  1  0  0  0  0
 28 29  1  0  0  0  0
 28 54  1  0  0  0  0
 29 30  2  0  0  0  0
 29 32  1  0  0  0  0
 30 31  1  0  0  0  0
 31 55  1  0  0  0  0
 32 33  1  0  0  0  0
 33 56  1  0  0  0  0
 33 57  1  0  0  0  0
 33 58  1  0  0  0  0
M  END
$$$$
CHEMBL569481
  -OEChem-07121202283D

 59 62  0     0  0  0  0  0  0999 V2000
   -0.0187    1.5258    0.0104 C   0  0  0  0  0  0  0  0  0  0  0  0
    0.0021   -0.0041    0.0020 C   0  0  0  0  0  0  0  0  0  0  0  0
   -1.4333   -0.5336    0.0129 C   0  0  0  0  0  0  0  0  0  0  0  0
   -1.4139   -1.9625    0.0050 O   0  0  0  0  0  0  0  0  0  0  0  0
   -2.7113   -2.5614    0.0142 C   0  0  0  0  0  0  0  0  0  0  0  0
   -2.5698   -4.0848    0.0047 C   0  0  0  0  0  0  0  0  0  0  0  0
   -1.9315   -4.5238    1.2481 N   0  0  0  0  0  0  0  0  0  0  0  0
   -0.5589   -4.6260    1.3332 C   0  0  0  0  0  0  0  0  0  0  0  0
    0.2518   -4.3168    0.2469 C   0  0  0  0  0  0  0  0  0  0  0  0
    1.6302   -4.4358    0.3839 C   0  0  0  0  0  0  0  0  0  0  0  0
    2.1740   -4.8381    1.5299 N   0  0  0  0  0  0  0  0  0  0  0  0
    1.4483   -5.1407    2.5821 C   0  0  0  0  0  0  0  0  0  0  0  0
    0.0504   -5.0484    2.5319 C   0  0  0  0  0  0  0  0  0  0  0  0
   -0.6973   -5.3575    3.6092 N   0  0  0  0  0  0  0  0  0  0  0  0
   -2.0032   -5.2729    3.5673 C   0  0  0  0  0  0  0  0  0  0  0  0
   -2.6780   -4.8299    2.3328 C   0  0  0  0  0  0  0  0  0  0  0  0
   -3.8913   -4.7448    2.2901 O   0  0  0  0  0  0  0  0  0  0  0  0
   -2.7519   -5.5952    4.6854 N   0  0  0  0  0  0  0  0  0  0  0  0
   -2.0832   -6.0305    5.9141 C   0  0  0  0  0  0  0  0  0  0  0  0
   -3.1160   -6.3182    6.9732 C   0  0  0  0  0  0  0  0  0  0  0  0
   -3.5658   -7.6125    7.1550 C   0  0  0  0  0  0  0  0  0  0  0  0
   -4.5160   -7.8665    8.1319 C   0  0  0  0  0  0  0  0  0  0  0  0
   -4.9804   -6.8043    8.8929 C   0  0  0  0  0  0  0  0  0  0  0  0
   -4.4842   -5.5370    8.6538 C   0  0  0  0  0  0  0  0  0  0  0  0
   -3.5762   -5.3332    7.7192 N   0  0  0  0  0  0  0  0  0  0  0  0
    2.5080   -4.1099   -0.7649 C   0  0  0  0  0  0  0  0  0  0  0  0
    3.8891   -4.3266   -0.6873 C   0  0  0  0  0  0  0  0  0  0  0  0
    4.6661   -4.0074   -1.7835 C   0  0  0  0  0  0  0  0  0  0  0  0
    4.0567   -3.4855   -2.9193 C   0  0  0  0  0  0  0  0  0  0  0  0
    2.7484   -3.2923   -2.9607 N   0  0  0  0  0  0  0  0  0  0  0  0
    1.9703   -3.5891   -1.9394 C   0  0  0  0  0  0  0  0  0  0  0  0
    4.8139   -3.1699   -3.9993 O   0  0  0  0  0  0  0  0  0  0  0  0
    4.1318   -2.6377   -5.1366 C   0  0  0  0  0  0  0  0  0  0  0  0
    1.0039    1.9031    0.0027 H   0  0  0  0  0  0  0  0  0  0  0  0
   -0.5459    1.8868   -0.8726 H   0  0  0  0  0  0  0  0  0  0  0  0
   -0.5289    1.8773    0.9072 H   0  0  0  0  0  0  0  0  0  0  0  0
    0.5123   -0.3556   -0.8948 H   0  0  0  0  0  0  0  0  0  0  0  0
    0.5293   -0.3651    0.8851 H   0  0  0  0  0  0  0  0  0  0  0  0
   -1.9435   -0.1821    0.9097 H   0  0  0  0  0  0  0  0  0  0  0  0
   -1.9605   -0.1726   -0.8702 H   0  0  0  0  0  0  0  0  0  0  0  0
   -3.2480   -2.2520    0.9110 H   0  0  0  0  0  0  0  0  0  0  0  0
   -3.2650   -2.2424   -0.8688 H   0  0  0  0  0  0  0  0  0  0  0  0
   -3.5564   -4.5409   -0.0779 H   0  0  0  0  0  0  0  0  0  0  0  0
   -1.9574   -4.3876   -0.8447 H   0  0  0  0  0  0  0  0  0  0  0  0
   -0.1815   -3.9904   -0.6869 H   0  0  0  0  0  0  0  0  0  0  0  0
    1.9320   -5.4634    3.4923 H   0  0  0  0  0  0  0  0  0  0  0  0
   -3.7194   -5.5330    4.6557 H   0  0  0  0  0  0  0  0  0  0  0  0
   -1.5069   -6.9337    5.7137 H   0  0  0  0  0  0  0  0  0  0  0  0
   -1.4150   -5.2430    6.2627 H   0  0  0  0  0  0  0  0  0  0  0  0
   -3.1821   -8.4158    6.5435 H   0  0  0  0  0  0  0  0  0  0  0  0
   -4.8861   -8.8677    8.2962 H   0  0  0  0  0  0  0  0  0  0  0  0
   -5.7209   -6.9654    9.6624 H   0  0  0  0  0  0  0  0  0  0  0  0
   -4.8407   -4.7044    9.2421 H   0  0  0  0  0  0  0  0  0  0  0  0
    4.3359   -4.7330    0.2080 H   0  0  0  0  0  0  0  0  0  0  0  0
    5.7348   -4.1609   -1.7588 H   0  0  0  0  0  0  0  0  0  0  0  0
    0.9058   -3.4224   -2.0121 H   0  0  0  0  0  0  0  0  0  0  0  0
    3.6228   -1.7155   -4.8563 H   0  0  0  0  0  0  0  0  0  0  0  0
    4.8523   -2.4290   -5.9275 H   0  0  0  0  0  0  0  0  0  0  0  0
    3.4002   -3.3625   -5.4936 H   0  0  0  0  0  0  0  0  0  0  0  0
  1  2  1  0  0  0  0
  1 34  1  0  0  0  0
  1 35  1  0  0  0  0
  1 36  1  0  0  0  0
  2  3  1  0  0  0  0
  2 37  1  0  0  0  0
  2 38  1  0  0  0  0
  3  4  1  0  0  0  0
  3 39  1  0  0  0  0
  3 40  1  0  0  0  0
  4  5  1  0  0  0  0
  5  6  1  0  0  0  0
  5 41  1  0  0  0  0
  5 42  1  0  0  0  0
  6  7  1  0  0  0  0
  6 43  1  0  0  0  0
  6 44  1  0  0  0  0
  7 16  1  0  0  0  0
  7  8  1  0  0  0  0
  8 13  2  0  0  0  0
  8  9  1  0  0  0  0
  9 10  2  0  0  0  0
  9 45  1  0  0  0  0
 10 11  1  0  0  0  0
 10 26  1  0  0  0  0
 11 12  2  0  0  0  0
 12 13  1  0  0  0  0
 12 46  1  0  0  0  0
 13 14  1  0  0  0  0
 14 15  2  0  0  0  0
 15 16  1  0  0  0  0
 15 18  1  0  0  0  0
 16 17  2  0  0  0  0
 18 19  1  0  0  0  0
 18 47  1  0  0  0  0
 19 20  1  0  0  0  0
 19 48  1  0  0  0  0
 19 49  1  0  0  0  0
 20 25  2  0  0  0  0
 20 21  1  0  0  0  0
 21 22  2  0  0  0  0
 21 50  1  0  0  0  0
 22 23  1  0  0  0  0
 22 51  1  0  0  0  0
 23 24  2  0  0  0  0
 23 52  1  0  0  0  0
 24 25  1  0  0  0  0
 24 53  1  0  0  0  0
 26 31  2  0  0  0  0
 26 27  1  0  0  0  0
 27 28  2  0  0  0  0
 27 54  1  0  0  0  0
 28 29  1  0  0  0  0
 28 55  1  0  0  0  0
 29 30  2  0  0  0  0
 29 32  1  0  0  0  0
 30 31  1  0  0  0  0
 31 56  1  0  0  0  0
 32 33  1  0  0  0  0
 33 57  1  0  0  0  0
 33 58  1  0  0  0  0
 33 59  1  0  0  0  0
M  END
$$$$
CHEMBL584317
  -OEChem-07121202283D

 60 62  0     0  0  0  0  0  0999 V2000
   -0.0187    1.5258    0.0104 C   0  0  0  0  0  0  0  0  0  0  0  0
    0.0021   -0.0041    0.0020 C   0  0  0  0  0  0  0  0  0  0  0  0
   -1.4333   -0.5336    0.0129 C   0  0  0  0  0  0  0  0  0  0  0  0
   -1.4139   -1.9625    0.0050 O   0  0  0  0  0  0  0  0  0  0  0  0
   -2.7113   -2.5614    0.0142 C   0  0  0  0  0  0  0  0  0  0  0  0
   -2.5698   -4.0848    0.0047 C   0  0  0  0  0  0  0  0  0  0  0  0
   -1.9315   -4.5238    1.2481 N   0  0  0  0  0  0  0  0  0  0  0  0
   -0.5552   -4.6259    1.3321 C   0  0  0  0  0  0  0  0  0  0  0  0
    0.2383   -4.3122    0.2334 C   0  0  0  0  0  0  0  0  0  0  0  0
    1.6218   -4.4290    0.3629 C   0  0  0  0  0  0  0  0  0  0  0  0
    2.1594   -4.8539    1.5828 C   0  0  0  0  0  0  0  0  0  0  0  0
    1.3858   -5.1427    2.6017 N   0  0  0  0  0  0  0  0  0  0  0  0
    0.0556   -5.0467    2.5273 C   0  0  0  0  0  0  0  0  0  0  0  0
   -0.6954   -5.3552    3.6048 N   0  0  0  0  0  0  0  0  0  0  0  0
   -2.0011   -5.2721    3.5660 C   0  0  0  0  0  0  0  0  0  0  0  0
   -2.6788   -4.8295    2.3316 C   0  0  0  0  0  0  0  0  0  0  0  0
   -3.8922   -4.7448    2.2892 O   0  0  0  0  0  0  0  0  0  0  0  0
   -2.7459   -5.5940    4.6838 N   0  0  0  0  0  0  0  0  0  0  0  0
   -2.0743   -6.0280    5.9114 C   0  0  0  0  0  0  0  0  0  0  0  0
   -3.1205   -6.3206    6.9888 C   0  0  0  0  0  0  0  0  0  0  0  0
   -3.9233   -7.4313    6.5841 O   0  0  0  0  0  0  0  0  0  0  0  0
   -4.9373   -7.7891    7.5253 C   0  0  0  0  0  0  0  0  0  0  0  0
   -5.7306   -8.9833    6.9911 C   0  0  0  0  0  0  0  0  0  0  0  0
    2.5122   -4.1074   -0.7781 C   0  0  0  0  0  0  0  0  0  0  0  0
    3.9009   -4.2296   -0.6515 C   0  0  0  0  0  0  0  0  0  0  0  0
    4.6894   -3.9185   -1.7421 C   0  0  0  0  0  0  0  0  0  0  0  0
    4.0833   -3.4976   -2.9204 C   0  0  0  0  0  0  0  0  0  0  0  0
    2.7674   -3.3924   -3.0078 N   0  0  0  0  0  0  0  0  0  0  0  0
    1.9788   -3.6848   -1.9930 C   0  0  0  0  0  0  0  0  0  0  0  0
    4.8517   -3.1900   -3.9951 O   0  0  0  0  0  0  0  0  0  0  0  0
    4.1724   -2.7634   -5.1777 C   0  0  0  0  0  0  0  0  0  0  0  0
    1.0039    1.9031    0.0027 H   0  0  0  0  0  0  0  0  0  0  0  0
   -0.5459    1.8868   -0.8726 H   0  0  0  0  0  0  0  0  0  0  0  0
   -0.5289    1.8773    0.9072 H   0  0  0  0  0  0  0  0  0  0  0  0
    0.5123   -0.3556   -0.8948 H   0  0  0  0  0  0  0  0  0  0  0  0
    0.5293   -0.3651    0.8851 H   0  0  0  0  0  0  0  0  0  0  0  0
   -1.9435   -0.1821    0.9097 H   0  0  0  0  0  0  0  0  0  0  0  0
   -1.9605   -0.1726   -0.8702 H   0  0  0  0  0  0  0  0  0  0  0  0
   -3.2480   -2.2520    0.9110 H   0  0  0  0  0  0  0  0  0  0  0  0
   -3.2650   -2.2424   -0.8688 H   0  0  0  0  0  0  0  0  0  0  0  0
   -3.5564   -4.5409   -0.0779 H   0  0  0  0  0  0  0  0  0  0  0  0
   -1.9574   -4.3876   -0.8447 H   0  0  0  0  0  0  0  0  0  0  0  0
   -0.2057   -3.9870   -0.6959 H   0  0  0  0  0  0  0  0  0  0  0  0
    3.2304   -4.9460    1.6871 H   0  0  0  0  0  0  0  0  0  0  0  0
   -3.7135   -5.5327    4.6560 H   0  0  0  0  0  0  0  0  0  0  0  0
   -1.4976   -6.9308    5.7103 H   0  0  0  0  0  0  0  0  0  0  0  0
   -1.4062   -5.2398    6.2582 H   0  0  0  0  0  0  0  0  0  0  0  0
   -2.6191   -6.5575    7.9272 H   0  0  0  0  0  0  0  0  0  0  0  0
   -3.7547   -5.4450    7.1267 H   0  0  0  0  0  0  0  0  0  0  0  0
   -4.4736   -8.0565    8.4749 H   0  0  0  0  0  0  0  0  0  0  0  0
   -5.6092   -6.9439    7.6744 H   0  0  0  0  0  0  0  0  0  0  0  0
   -5.0586   -9.8285    6.8420 H   0  0  0  0  0  0  0  0  0  0  0  0
   -6.5040   -9.2563    7.7090 H   0  0  0  0  0  0  0  0  0  0  0  0
   -6.1943   -8.7160    6.0415 H   0  0  0  0  0  0  0  0  0  0  0  0
    4.3450   -4.5588    0.2763 H   0  0  0  0  0  0  0  0  0  0  0  0
    5.7644   -4.0010   -1.6801 H   0  0  0  0  0  0  0  0  0  0  0  0
    0.9085   -3.5916   -2.1034 H   0  0  0  0  0  0  0  0  0  0  0  0
    3.5973   -1.8630   -4.9616 H   0  0  0  0  0  0  0  0  0  0  0  0
    4.9019   -2.5498   -5.9588 H   0  0  0  0  0  0  0  0  0  0  0  0
    3.4996   -3.5520   -5.5147 H   0  0  0  0  0  0  0  0  0  0  0  0
  1  2  1  0  0  0  0
  1 32  1  0  0  0  0
  1 33  1  0  0  0  0
  1 34  1  0  0  0  0
  2  3  1  0  0  0  0
  2 35  1  0  0  0  0
  2 36  1  0  0  0  0
  3  4  1  0  0  0  0
  3 37  1  0  0  0  0
  3 38  1  0  0  0  0
  4  5  1  0  0  0  0
  5  6  1  0  0  0  0
  5 39  1  0  0  0  0
  5 40  1  0  0  0  0
  6  7  1  0  0  0  0
  6 41  1  0  0  0  0
  6 42  1  0  0  0  0
  7 16  1  0  0  0  0
  7  8  1  0  0  0  0
  8 13  2  0  0  0  0
  8  9  1  0  0  0  0
  9 10  2  0  0  0  0
  9 43  1  0  0  0  0
 10 11  1  0  0  0  0
 10 24  1  0  0  0  0
 11 12  2  0  0  0  0
 11 44  1  0  0  0  0
 12 13  1  0  0  0  0
 13 14  1  0  0  0  0
 14 15  2  0  0  0  0
 15 16  1  0  0  0  0
 15 18  1  0  0  0  0
 16 17  2  0  0  0  0
 18 19  1  0  0  0  0
 18 45  1  0  0  0  0
 19 20  1  0  0  0  0
 19 46  1  0  0  0  0
 19 47  1  0  0  0  0
 20 21  1  0  0  0  0
 20 48  1  0  0  0  0
 20 49  1  0  0  0  0
 21 22  1  0  0  0  0
 22 23  1  0  0  0  0
 22 50  1  0  0  0  0
 22 51  1  0  0  0  0
 23 52  1  0  0  0  0
 23 53  1  0  0  0  0
 23 54  1  0  0  0  0
 24 29  2  0  0  0  0
 24 25  1  0  0  0  0
 25 26  2  0  0  0  0
 25 55  1  0  0  0  0
 26 27  1  0  0  0  0
 26 56  1  0  0  0  0
 27 28  2  0  0  0  0
 27 30  1  0  0  0  0
 28 29  1  0  0  0  0
 29 57  1  0  0  0  0
 30 31  1  0  0  0  0
 31 58  1  0  0  0  0
 31 59  1  0  0  0  0
 31 60  1  0  0  0  0
M  END
$$$$
CHEMBL180237
  -OEChem-07121202283D

 60 63  0     0  0  0  0  0  0999 V2000
   -0.0187    1.5258    0.0104 C   0  0  0  0  0  0  0  0  0  0  0  0
    0.0021   -0.0041    0.0020 C   0  0  0  0  0  0  0  0  0  0  0  0
    0.7421   -0.5109    1.2415 C   0  0  0  0  0  0  0  0  0  0  0  0
    0.7619   -1.9757    1.2335 N   0  0  0  0  0  0  0  0  0  0  0  0
   -0.1217   -2.7977    1.8677 C   0  0  0  0  0  0  0  0  0  0  0  0
    0.1950   -4.0409    1.6468 N   0  0  0  0  0  0  0  0  0  0  0  0
    1.2961   -4.0906    0.8611 C   0  0  0  0  0  0  0  0  0  0  0  0
    1.6678   -2.7698    0.5828 C   0  0  0  0  0  0  0  0  0  0  0  0
    2.7335   -2.5290   -0.1877 N   0  0  0  0  0  0  0  0  0  0  0  0
    3.4424   -3.5127   -0.6954 C   0  0  0  0  0  0  0  0  0  0  0  0
    3.1288   -4.8229   -0.4639 N   0  0  0  0  0  0  0  0  0  0  0  0
    2.0701   -5.1431    0.3130 C   0  0  0  0  0  0  0  0  0  0  0  0
    1.7804   -6.3080    0.5252 O   0  0  0  0  0  0  0  0  0  0  0  0
    4.6097   -3.1935   -1.5396 C   0  0  0  0  0  0  0  0  0  0  0  0
    5.3760   -4.2203   -2.0958 C   0  0  0  0  0  0  0  0  0  0  0  0
    6.4650   -3.9155   -2.8840 C   0  0  0  0  0  0  0  0  0  0  0  0
    6.8033   -2.5946   -3.1274 C   0  0  0  0  0  0  0  0  0  0  0  0
    6.0538   -1.5699   -2.5834 C   0  0  0  0  0  0  0  0  0  0  0  0
    4.9523   -1.8585   -1.7927 C   0  0  0  0  0  0  0  0  0  0  0  0
    4.2116   -0.8525   -1.2622 O   0  0  0  0  0  0  0  0  0  0  0  0
    4.6211    0.4831   -1.5635 C   0  0  0  0  0  0  0  0  0  0  0  0
    3.6731    1.4728   -0.8833 C   0  0  0  0  0  0  0  0  0  0  0  0
    7.4312   -5.2118   -3.5845 S   0  0  0  0  0  0  0  0  0  0  0  0
    8.7193   -4.6675   -3.8366 O   0  0  0  0  0  0  0  0  0  0  0  0
    7.2345   -6.3544   -2.7629 O   0  0  0  0  0  0  0  0  0  0  0  0
    6.7719   -5.5710   -5.0605 N   0  0  0  0  0  0  0  0  0  0  0  0
    5.7146   -6.5854   -5.1883 C   0  0  0  0  0  0  0  0  0  0  0  0
    4.5477   -5.9761   -5.9728 C   0  0  0  0  0  0  0  0  0  0  0  0
    5.0462   -5.4348   -7.2442 N   0  0  0  0  0  0  0  0  0  0  0  0
    6.0018   -4.3419   -7.0199 C   0  0  0  0  0  0  0  0  0  0  0  0
    7.2239   -4.8799   -6.2776 C   0  0  0  0  0  0  0  0  0  0  0  0
    3.9364   -4.9963   -8.1009 C   0  0  0  0  0  0  0  0  0  0  0  0
    1.0039    1.9031    0.0027 H   0  0  0  0  0  0  0  0  0  0  0  0
   -0.5459    1.8868   -0.8726 H   0  0  0  0  0  0  0  0  0  0  0  0
   -0.5289    1.8773    0.9072 H   0  0  0  0  0  0  0  0  0  0  0  0
   -1.0205   -0.3814    0.0098 H   0  0  0  0  0  0  0  0  0  0  0  0
    0.5123   -0.3556   -0.8948 H   0  0  0  0  0  0  0  0  0  0  0  0
    1.7647   -0.1336    1.2338 H   0  0  0  0  0  0  0  0  0  0  0  0
    0.2319   -0.1594    2.1383 H   0  0  0  0  0  0  0  0  0  0  0  0
   -0.9589   -2.4670    2.4645 H   0  0  0  0  0  0  0  0  0  0  0  0
    3.6719   -5.5257   -0.8538 H   0  0  0  0  0  0  0  0  0  0  0  0
    5.1160   -5.2516   -1.9083 H   0  0  0  0  0  0  0  0  0  0  0  0
    7.6583   -2.3646   -3.7458 H   0  0  0  0  0  0  0  0  0  0  0  0
    6.3241   -0.5424   -2.7774 H   0  0  0  0  0  0  0  0  0  0  0  0
    5.6359    0.6429   -1.1992 H   0  0  0  0  0  0  0  0  0  0  0  0
    4.5939    0.6368   -2.6423 H   0  0  0  0  0  0  0  0  0  0  0  0
    2.6583    1.3130   -1.2476 H   0  0  0  0  0  0  0  0  0  0  0  0
    3.7003    1.3191    0.1955 H   0  0  0  0  0  0  0  0  0  0  0  0
    3.9854    2.4915   -1.1132 H   0  0  0  0  0  0  0  0  0  0  0  0
    6.1020   -7.4527   -5.7230 H   0  0  0  0  0  0  0  0  0  0  0  0
    5.3730   -6.8851   -4.1976 H   0  0  0  0  0  0  0  0  0  0  0  0
    3.8024   -6.7459   -6.1725 H   0  0  0  0  0  0  0  0  0  0  0  0
    4.0958   -5.1746   -5.3885 H   0  0  0  0  0  0  0  0  0  0  0  0
    6.3109   -3.9265   -7.9791 H   0  0  0  0  0  0  0  0  0  0  0  0
    5.5296   -3.5631   -6.4211 H   0  0  0  0  0  0  0  0  0  0  0  0
    7.8797   -4.0524   -6.0066 H   0  0  0  0  0  0  0  0  0  0  0  0
    7.7592   -5.5800   -6.9189 H   0  0  0  0  0  0  0  0  0  0  0  0
    3.3675   -4.2198   -7.5895 H   0  0  0  0  0  0  0  0  0  0  0  0
    4.3334   -4.6000   -9.0354 H   0  0  0  0  0  0  0  0  0  0  0  0
    3.2846   -5.8438   -8.3134 H   0  0  0  0  0  0  0  0  0  0  0  0
  1  2  1  0  0  0  0
  1 33  1  0  0  0  0
  1 34  1  0  0  0  0
  1 35  1  0  0  0  0
  2  3  1  0  0  0  0
  2 36  1  0  0  0  0
  2 37  1  0  0  0  0
  3 38  1  0  0  0  0
  3 39  1  0  0  0  0
  3  4  1  0  0  0  0
  4  5  1  0  0  0  0
  4  8  1  0  0  0  0
  5  6  2  0  0  0  0
  5 40  1  0  0  0  0
  6  7  1  0  0  0  0
  7 12  1  0  0  0  0
  7  8  2  0  0  0  0
  8  9  1  0  0  0  0
  9 10  2  0  0  0  0
 10 14  1  0  0  0  0
 10 11  1  0  0  0  0
 11 41  1  0  0  0  0
 11 12  1  0  0  0  0
 12 13  2  0  0  0  0
 14 19  2  0  0  0  0
 14 15  1  0  0  0  0
 15 16  2  0  0  0  0
 15 42  1  0  0  0  0
 16 17  1  0  0  0  0
 16 23  1  0  0  0  0
 17 18  2  0  0  0  0
 17 43  1  0  0  0  0
 18 19  1  0  0  0  0
 18 44  1  0  0  0  0
 19 20  1  0  0  0  0
 20 21  1  0  0  0  0
 21 22  1  0  0  0  0
 21 45  1  0  0  0  0
 21 46  1  0  0  0  0
 22 47  1  0  0  0  0
 22 48  1  0  0  0  0
 22 49  1  0  0  0  0
 23 24  2  0  0  0  0
 23 25  2  0  0  0  0
 23 26  1  0  0  0  0
 26 31  1  0  0  0  0
 26 27  1  0  0  0  0
 27 28  1  0  0  0  0
 27 50  1  0  0  0  0
 27 51  1  0  0  0  0
 28 29  1  0  0  0  0
 28 52  1  0  0  0  0
 28 53  1  0  0  0  0
 29 30  1  0  0  0  0
 29 32  1  0  0  0  0
 30 31  1  0  0  0  0
 30 54  1  0  0  0  0
 30 55  1  0  0  0  0
 31 56  1  0  0  0  0
 31 57  1  0  0  0  0
 32 58  1  0  0  0  0
 32 59  1  0  0  0  0
 32 60  1  0  0  0  0
M  END
$$$$
CHEMBL180237
  -OEChem-07121202283D

 61 64  0     0  0  0  0  0  0999 V2000
   -0.0187    1.5258    0.0104 C   0  0  0  0  0  0  0  0  0  0  0  0
    0.0021   -0.0041    0.0020 C   0  0  0  0  0  0  0  0  0  0  0  0
   -1.4333   -0.5336    0.0129 C   0  0  0  0  0  0  0  0  0  0  0  0
   -1.4134   -1.9985    0.0048 N   0  0  0  0  0  0  0  0  0  0  0  0
   -1.5083   -2.8003   -1.0938 C   0  0  0  0  0  0  0  0  0  0  0  0
   -1.4559   -4.0502   -0.7340 N   0  0  0  0  0  0  0  0  0  0  0  0
   -1.3249   -4.1248    0.6112 C   0  0  0  0  0  0  0  0  0  0  0  0
   -1.2903   -2.8128    1.0986 C   0  0  0  0  0  0  0  0  0  0  0  0
   -1.1593   -2.5961    2.4113 N   0  0  0  0  0  0  0  0  0  0  0  0
   -1.0585   -3.5955    3.2593 C   0  0  0  0  0  0  0  0  0  0  0  0
   -1.0819   -4.8982    2.8458 N   0  0  0  0  0  0  0  0  0  0  0  0
   -1.2206   -5.1944    1.5344 C   0  0  0  0  0  0  0  0  0  0  0  0
   -1.2415   -6.3524    1.1541 O   0  0  0  0  0  0  0  0  0  0  0  0
   -0.9157   -3.3028    4.6984 C   0  0  0  0  0  0  0  0  0  0  0  0
   -0.8009   -4.3465    5.6194 C   0  0  0  0  0  0  0  0  0  0  0  0
   -0.6673   -4.0664    6.9624 C   0  0  0  0  0  0  0  0  0  0  0  0
   -0.6462   -2.7535    7.4034 C   0  0  0  0  0  0  0  0  0  0  0  0
   -0.7587   -1.7122    6.5030 C   0  0  0  0  0  0  0  0  0  0  0  0
   -0.8885   -1.9759    5.1482 C   0  0  0  0  0  0  0  0  0  0  0  0
   -0.9935   -0.9534    4.2618 O   0  0  0  0  0  0  0  0  0  0  0  0
   -0.9579    0.3724    4.7937 C   0  0  0  0  0  0  0  0  0  0  0  0
   -1.0887    1.3833    3.6527 C   0  0  0  0  0  0  0  0  0  0  0  0
   -0.5232   -5.3841    8.1232 S   0  0  0  0  0  0  0  0  0  0  0  0
   -0.9571   -4.8714    9.3755 O   0  0  0  0  0  0  0  0  0  0  0  0
   -1.1187   -6.5242    7.5193 O   0  0  0  0  0  0  0  0  0  0  0  0
    1.0901   -5.7215    8.2832 N   0  0  0  0  0  0  0  0  0  0  0  0
    1.7465   -6.7084    7.4119 C   0  0  0  0  0  0  0  0  0  0  0  0
    3.0093   -6.0719    6.8221 C   0  0  0  0  0  0  0  0  0  0  0  0
    3.8556   -5.5665    7.9105 N   0  3  0  0  0  0  0  0  0  0  0  0
    3.1629   -4.4845    8.6214 C   0  0  0  0  0  0  0  0  0  0  0  0
    1.9089   -5.0383    9.2966 C   0  0  0  0  0  0  0  0  0  0  0  0
    5.1148   -5.0557    7.3524 C   0  0  0  0  0  0  0  0  0  0  0  0
    1.0039    1.9031    0.0027 H   0  0  0  0  0  0  0  0  0  0  0  0
   -0.5459    1.8868   -0.8726 H   0  0  0  0  0  0  0  0  0  0  0  0
   -0.5289    1.8773    0.9072 H   0  0  0  0  0  0  0  0  0  0  0  0
    0.5123   -0.3556   -0.8948 H   0  0  0  0  0  0  0  0  0  0  0  0
    0.5293   -0.3651    0.8851 H   0  0  0  0  0  0  0  0  0  0  0  0
   -1.9435   -0.1821    0.9097 H   0  0  0  0  0  0  0  0  0  0  0  0
   -1.9605   -0.1726   -0.8702 H   0  0  0  0  0  0  0  0  0  0  0  0
   -1.6120   -2.4507   -2.1103 H   0  0  0  0  0  0  0  0  0  0  0  0
   -1.0046   -5.6131    3.4969 H   0  0  0  0  0  0  0  0  0  0  0  0
   -0.8173   -5.3716    5.2799 H   0  0  0  0  0  0  0  0  0  0  0  0
   -0.5414   -2.5429    8.4575 H   0  0  0  0  0  0  0  0  0  0  0  0
   -0.7417   -0.6912    6.8545 H   0  0  0  0  0  0  0  0  0  0  0  0
   -1.7830    0.5055    5.4934 H   0  0  0  0  0  0  0  0  0  0  0  0
   -0.0124    0.5305    5.3125 H   0  0  0  0  0  0  0  0  0  0  0  0
   -2.0342    1.2252    3.1338 H   0  0  0  0  0  0  0  0  0  0  0  0
   -1.0616    2.3946    4.0583 H   0  0  0  0  0  0  0  0  0  0  0  0
   -0.2636    1.2502    2.9530 H   0  0  0  0  0  0  0  0  0  0  0  0
    2.0180   -7.5885    7.9949 H   0  0  0  0  0  0  0  0  0  0  0  0
    1.0696   -6.9935    6.6065 H   0  0  0  0  0  0  0  0  0  0  0  0
    3.5599   -6.8190    6.2505 H   0  0  0  0  0  0  0  0  0  0  0  0
    2.7286   -5.2471    6.1671 H   0  0  0  0  0  0  0  0  0  0  0  0
    3.8267   -4.0619    9.3756 H   0  0  0  0  0  0  0  0  0  0  0  0
    2.8776   -3.7078    7.9119 H   0  0  0  0  0  0  0  0  0  0  0  0
    1.3394   -4.2197    9.7366 H   0  0  0  0  0  0  0  0  0  0  0  0
    2.1971   -5.7468   10.0732 H   0  0  0  0  0  0  0  0  0  0  0  0
    4.9008   -4.2479    6.6525 H   0  0  0  0  0  0  0  0  0  0  0  0
    5.7440   -4.6803    8.1593 H   0  0  0  0  0  0  0  0  0  0  0  0
    5.6339   -5.8601    6.8311 H   0  0  0  0  0  0  0  0  0  0  0  0
    4.0560   -6.3165    8.5550 H   0  0  0  0  0  0  0  0  0  0  0  0
  1  2  1  0  0  0  0
  1 33  1  0  0  0  0
  1 34  1  0  0  0  0
  1 35  1  0  0  0  0
  2  3  1  0  0  0  0
  2 36  1  0  0  0  0
  2 37  1  0  0  0  0
  3 38  1  0  0  0  0
  3 39  1  0  0  0  0
  3  4  1  0  0  0  0
  4  5  1  0  0  0  0
  4  8  1  0  0  0  0
  5  6  2  0  0  0  0
  5 40  1  0  0  0  0
  6  7  1  0  0  0  0
  7 12  1  0  0  0  0
  7  8  2  0  0  0  0
  8  9  1  0  0  0  0
  9 10  2  0  0  0  0
 10 14  1  0  0  0  0
 10 11  1  0  0  0  0
 11 41  1  0  0  0  0
 11 12  1  0  0  0  0
 12 13  2  0  0  0  0
 14 19  2  0  0  0  0
 14 15  1  0  0  0  0
 15 16  2  0  0  0  0
 15 42  1  0  0  0  0
 16 17  1  0  0  0  0
 16 23  1  0  0  0  0
 17 18  2  0  0  0  0
 17 43  1  0  0  0  0
 18 19  1  0  0  0  0
 18 44  1  0  0  0  0
 19 20  1  0  0  0  0
 20 21  1  0  0  0  0
 21 22  1  0  0  0  0
 21 45  1  0  0  0  0
 21 46  1  0  0  0  0
 22 47  1  0  0  0  0
 22 48  1  0  0  0  0
 22 49  1  0  0  0  0
 23 24  2  0  0  0  0
 23 25  2  0  0  0  0
 23 26  1  0  0  0  0
 26 31  1  0  0  0  0
 26 27  1  0  0  0  0
 27 28  1  0  0  0  0
 27 50  1  0  0  0  0
 27 51  1  0  0  0  0
 28 29  1  0  0  0  0
 28 52  1  0  0  0  0
 28 53  1  0  0  0  0
 29 30  1  0  0  0  0
 29 32  1  0  0  0  0
 29 61  1  0  0  0  0
 30 31  1  0  0  0  0
 30 54  1  0  0  0  0
 30 55  1  0  0  0  0
 31 56  1  0  0  0  0
 31 57  1  0  0  0  0
 32 58  1  0  0  0  0
 32 59  1  0  0  0  0
 32 60  1  0  0  0  0
M  CHG  1  29   1
M  END
$$$$
CHEMBL557467
  -OEChem-07121202283D

 64 68  0     0  0  0  0  0  0999 V2000
   -0.0168    1.3905    0.0097 C   0  0  0  0  0  0  0  0  0  0  0  0
    1.1694    2.0941    0.0021 C   0  0  0  0  0  0  0  0  0  0  0  0
    2.3789    1.4175   -0.0130 C   0  0  0  0  0  0  0  0  0  0  0  0
    2.4027    0.0319   -0.0212 C   0  0  0  0  0  0  0  0  0  0  0  0
    1.2216   -0.6805   -0.0142 C   0  0  0  0  0  0  0  0  0  0  0  0
    0.0021   -0.0041    0.0020 C   0  0  0  0  0  0  0  0  0  0  0  0
   -1.2695   -0.7646    0.0106 C   0  0  0  0  0  0  0  0  0  0  0  0
   -1.2342   -2.1621    0.0085 C   0  0  0  0  0  0  0  0  0  0  0  0
   -2.4062   -2.8666    0.0168 C   0  0  0  0  0  0  0  0  0  0  0  0
   -3.6176   -2.1535    0.0273 C   0  0  0  0  0  0  0  0  0  0  0  0
   -3.5823   -0.7463    0.0288 C   0  0  0  0  0  0  0  0  0  0  0  0
   -2.4208   -0.1084    0.0255 N   0  0  0  0  0  0  0  0  0  0  0  0
   -4.7618   -0.0290    0.0390 N   0  0  0  0  0  0  0  0  0  0  0  0
   -5.9368   -0.6943    0.0474 C   0  0  0  0  0  0  0  0  0  0  0  0
   -6.9899   -0.0841    0.0561 O   0  0  0  0  0  0  0  0  0  0  0  0
   -5.9288   -2.1687    0.0455 C   0  0  0  0  0  0  0  0  0  0  0  0
   -4.7905   -2.8160    0.0361 N   0  0  0  0  0  0  0  0  0  0  0  0
   -7.1231   -2.8678    0.0540 N   0  0  0  0  0  0  0  0  0  0  0  0
   -7.1143   -4.3327    0.0520 C   0  0  0  0  0  0  0  0  0  0  0  0
   -8.5537   -4.8514    0.0627 C   0  0  0  0  0  0  0  0  0  0  0  0
   -9.2287   -4.4624    1.3816 C   0  0  0  0  0  0  0  0  0  0  0  0
  -10.6409   -5.0524    1.4164 C   0  0  0  0  0  0  0  0  0  0  0  0
  -10.5670   -6.4711    1.2617 O   0  0  0  0  0  0  0  0  0  0  0  0
   -9.9878   -6.8938    0.0257 C   0  0  0  0  0  0  0  0  0  0  0  0
   -8.5493   -6.3778   -0.0651 C   0  0  0  0  0  0  0  0  0  0  0  0
   -4.7390    1.4358    0.0412 C   0  0  0  0  0  0  0  0  0  0  0  0
   -4.7421    1.9481   -1.4005 C   0  0  0  0  0  0  0  0  0  0  0  0
   -3.4466    1.5241   -2.0952 C   0  0  0  0  0  0  0  0  0  0  0  0
   -3.4497    2.0363   -3.5369 C   0  0  0  0  0  0  0  0  0  0  0  0
   -3.5517    3.5629   -3.5356 C   0  0  0  0  0  0  0  0  0  0  0  0
   -4.8472    3.9869   -2.8408 C   0  0  0  0  0  0  0  0  0  0  0  0
   -4.8441    3.4747   -1.3991 C   0  0  0  0  0  0  0  0  0  0  0  0
    3.5383    2.1110   -0.0204 F   0  0  0  0  0  0  0  0  0  0  0  0
   -0.9588    1.9185    0.0260 H   0  0  0  0  0  0  0  0  0  0  0  0
    1.1558    3.1740    0.0077 H   0  0  0  0  0  0  0  0  0  0  0  0
    3.3476   -0.4910   -0.0334 H   0  0  0  0  0  0  0  0  0  0  0  0
    1.2412   -1.7603   -0.0212 H   0  0  0  0  0  0  0  0  0  0  0  0
   -0.2876   -2.6818    0.0001 H   0  0  0  0  0  0  0  0  0  0  0  0
   -2.4012   -3.9466    0.0151 H   0  0  0  0  0  0  0  0  0  0  0  0
   -7.9660   -2.3878    0.0613 H   0  0  0  0  0  0  0  0  0  0  0  0
   -6.6053   -4.6919   -0.8424 H   0  0  0  0  0  0  0  0  0  0  0  0
   -6.5913   -4.6941    0.9375 H   0  0  0  0  0  0  0  0  0  0  0  0
   -9.1039   -4.4172   -0.7720 H   0  0  0  0  0  0  0  0  0  0  0  0
   -8.6492   -4.8550    2.2171 H   0  0  0  0  0  0  0  0  0  0  0  0
   -9.2858   -3.3764    1.4551 H   0  0  0  0  0  0  0  0  0  0  0  0
  -11.1107   -4.8148    2.3709 H   0  0  0  0  0  0  0  0  0  0  0  0
  -11.2321   -4.6286    0.6046 H   0  0  0  0  0  0  0  0  0  0  0  0
   -9.9870   -7.9828   -0.0218 H   0  0  0  0  0  0  0  0  0  0  0  0
  -10.5704   -6.4941   -0.8043 H   0  0  0  0  0  0  0  0  0  0  0  0
   -8.1204   -6.6616   -1.0261 H   0  0  0  0  0  0  0  0  0  0  0  0
   -7.9560   -6.8092    0.7412 H   0  0  0  0  0  0  0  0  0  0  0  0
   -5.6192    1.8122    0.5624 H   0  0  0  0  0  0  0  0  0  0  0  0
   -3.8395    1.7844    0.5486 H   0  0  0  0  0  0  0  0  0  0  0  0
   -5.5947    1.5275   -1.9337 H   0  0  0  0  0  0  0  0  0  0  0  0
   -2.5940    1.9447   -1.5621 H   0  0  0  0  0  0  0  0  0  0  0  0
   -3.3739    0.4365   -2.0962 H   0  0  0  0  0  0  0  0  0  0  0  0
   -2.5267    1.7343   -4.0319 H   0  0  0  0  0  0  0  0  0  0  0  0
   -4.3023    1.6157   -4.0701 H   0  0  0  0  0  0  0  0  0  0  0  0
   -2.6991    3.9835   -3.0024 H   0  0  0  0  0  0  0  0  0  0  0  0
   -3.5539    3.9279   -4.5627 H   0  0  0  0  0  0  0  0  0  0  0  0
   -4.9199    5.0745   -2.8399 H   0  0  0  0  0  0  0  0  0  0  0  0
   -5.6998    3.5663   -3.3740 H   0  0  0  0  0  0  0  0  0  0  0  0
   -5.7671    3.7767   -0.9042 H   0  0  0  0  0  0  0  0  0  0  0  0
   -3.9915    3.8953   -0.8660 H   0  0  0  0  0  0  0  0  0  0  0  0
  1  6  2  0  0  0  0
  1  2  1  0  0  0  0
  1 34  1  0  0  0  0
  2  3  2  0  0  0  0
  2 35  1  0  0  0  0
  3  4  1  0  0  0  0
  3 33  1  0  0  0  0
  4  5  2  0  0  0  0
  4 36  1  0  0  0  0
  5  6  1  0  0  0  0
  5 37  1  0  0  0  0
  6  7  1  0  0  0  0
  7 12  2  0  0  0  0
  7  8  1  0  0  0  0
  8  9  2  0  0  0  0
  8 38  1  0  0  0  0
  9 10  1  0  0  0  0
  9 39  1  0  0  0  0
 10 17  1  0  0  0  0
 10 11  2  0  0  0  0
 11 12  1  0  0  0  0
 11 13  1  0  0  0  0
 13 14  1  0  0  0  0
 13 26  1  0  0  0  0
 14 15  2  0  0  0  0
 14 16  1  0  0  0  0
 16 17  2  0  0  0  0
 16 18  1  0  0  0  0
 18 19  1  0  0  0  0
 18 40  1  0  0  0  0
 19 20  1  0  0  0  0
 19 41  1  0  0  0  0
 19 42  1  0  0  0  0
 20 25  1  0  0  0  0
 20 21  1  0  0  0  0
 20 43  1  0  0  0  0
 21 22  1  0  0  0  0
 21 44  1  0  0  0  0
 21 45  1  0  0  0  0
 22 23  1  0  0  0  0
 22 46  1  0  0  0  0
 22 47  1  0  0  0  0
 23 24  1  0  0  0  0
 24 25  1  0  0  0  0
 24 48  1  0  0  0  0
 24 49  1  0  0  0  0
 25 50  1  0  0  0  0
 25 51  1  0  0  0  0
 26 27  1  0  0  0  0
 26 52  1  0  0  0  0
 26 53  1  0  0  0  0
 27 32  1  0  0  0  0
 27 28  1  0  0  0  0
 27 54  1  0  0  0  0
 28 29  1  0  0  0  0
 28 55  1  0  0  0  0
 28 56  1  0  0  0  0
 29 30  1  0  0  0  0
 29 57  1  0  0  0  0
 29 58  1  0  0  0  0
 30 31  1  0  0  0  0
 30 59  1  0  0  0  0
 30 60  1  0  0  0  0
 31 32  1  0  0  0  0
 31 61  1  0  0  0  0
 31 62  1  0  0  0  0
 32 63  1  0  0  0  0
 32 64  1  0  0  0  0
M  END
$$$$
CHEMBL431377
  -OEChem-07121202283D

 70 76  0     0  0  0  0  0  0999 V2000
   -0.0178    1.4608    0.0101 C   0  0  0  0  0  0  0  0  0  0  0  0
    0.0021   -0.0041    0.0020 N   0  0  0  0  0  0  0  0  0  0  0  0
    0.0054   -0.6577   -1.1733 C   0  0  0  0  0  0  0  0  0  0  0  0
   -0.0089   -0.0330   -2.2187 O   0  0  0  0  0  0  0  0  0  0  0  0
    0.0260   -2.0682   -1.1933 C   0  0  0  0  0  0  0  0  0  0  0  0
    0.0444   -2.7656    0.0057 C   0  0  0  0  0  0  0  0  0  0  0  0
    0.0619   -4.0681   -0.2937 N   0  0  0  0  0  0  0  0  0  0  0  0
    0.0546   -4.2245   -1.5929 C   0  0  0  0  0  0  0  0  0  0  0  0
    0.0320   -3.0199   -2.1952 N   0  0  0  0  0  0  0  0  0  0  0  0
    0.0162   -2.7669   -3.6381 C   0  0  0  0  0  0  0  0  0  0  0  0
    1.4314   -2.6588   -4.1446 C   0  0  0  0  0  0  0  0  0  0  0  0
    2.0665   -1.4311   -4.1647 C   0  0  0  0  0  0  0  0  0  0  0  0
    3.3647   -1.3320   -4.6293 C   0  0  0  0  0  0  0  0  0  0  0  0
    4.0279   -2.4606   -5.0735 C   0  0  0  0  0  0  0  0  0  0  0  0
    3.3931   -3.6884   -5.0525 C   0  0  0  0  0  0  0  0  0  0  0  0
    2.0965   -3.7882   -4.5839 C   0  0  0  0  0  0  0  0  0  0  0  0
    0.0688   -5.5515   -2.3070 C   0  0  0  0  0  0  0  0  0  0  0  0
   -1.3471   -6.0144   -2.5352 C   0  0  0  0  0  0  0  0  0  0  0  0
   -1.9808   -6.7895   -1.5808 C   0  0  0  0  0  0  0  0  0  0  0  0
   -3.2775   -7.2162   -1.7846 C   0  0  0  0  0  0  0  0  0  0  0  0
   -3.9481   -6.8647   -2.9542 C   0  0  0  0  0  0  0  0  0  0  0  0
   -3.3049   -6.0837   -3.9122 C   0  0  0  0  0  0  0  0  0  0  0  0
   -2.0101   -5.6578   -3.6956 C   0  0  0  0  0  0  0  0  0  0  0  0
   -5.3422   -7.3210   -3.1791 C   0  0  0  0  0  0  0  0  0  0  0  0
   -5.9872   -8.0975   -2.2187 C   0  0  0  0  0  0  0  0  0  0  0  0
   -7.2840   -8.5187   -2.4328 C   0  0  0  0  0  0  0  0  0  0  0  0
   -7.9431   -8.1717   -3.5983 C   0  0  0  0  0  0  0  0  0  0  0  0
   -7.3074   -7.4013   -4.5553 C   0  0  0  0  0  0  0  0  0  0  0  0
   -6.0128   -6.9695   -4.3488 C   0  0  0  0  0  0  0  0  0  0  0  0
    0.0410   -2.0630    1.2010 N   0  0  0  0  0  0  0  0  0  0  0  0
    0.0228   -0.6909    1.2059 C   0  0  0  0  0  0  0  0  0  0  0  0
    0.0224   -0.1830    2.4109 N   0  3  0  0  0  0  0  0  0  0  0  0
    0.0488   -1.2464    3.4080 C   0  0  0  0  0  0  0  0  0  0  0  0
    0.0588   -2.5454    2.5945 C   0  0  0  0  0  0  0  0  0  0  0  0
    1.2913   -1.1442    4.3035 C   0  0  0  0  0  0  0  0  0  0  0  0
    0.7710   -0.4527    5.5900 C   0  0  0  0  0  0  0  0  0  0  0  0
   -0.6415   -1.0654    5.7639 C   0  0  0  0  0  0  0  0  0  0  0  0
   -1.1793   -1.1932    4.3215 C   0  0  0  0  0  0  0  0  0  0  0  0
    1.0048    1.8381    0.0023 H   0  0  0  0  0  0  0  0  0  0  0  0
   -0.5450    1.8219   -0.8730 H   0  0  0  0  0  0  0  0  0  0  0  0
   -0.5280    1.8123    0.9069 H   0  0  0  0  0  0  0  0  0  0  0  0
   -0.4895   -3.5883   -4.1455 H   0  0  0  0  0  0  0  0  0  0  0  0
   -0.5133   -1.8353   -3.8378 H   0  0  0  0  0  0  0  0  0  0  0  0
    1.5483   -0.5493   -3.8177 H   0  0  0  0  0  0  0  0  0  0  0  0
    3.8606   -0.3727   -4.6457 H   0  0  0  0  0  0  0  0  0  0  0  0
    5.0419   -2.3830   -5.4371 H   0  0  0  0  0  0  0  0  0  0  0  0
    3.9112   -4.5701   -5.3998 H   0  0  0  0  0  0  0  0  0  0  0  0
    1.6019   -4.7481   -4.5640 H   0  0  0  0  0  0  0  0  0  0  0  0
    0.5744   -5.4423   -3.2665 H   0  0  0  0  0  0  0  0  0  0  0  0
    0.5976   -6.2856   -1.6991 H   0  0  0  0  0  0  0  0  0  0  0  0
   -1.4599   -7.0617   -0.6747 H   0  0  0  0  0  0  0  0  0  0  0  0
   -3.7712   -7.8217   -1.0389 H   0  0  0  0  0  0  0  0  0  0  0  0
   -3.8200   -5.8087   -4.8208 H   0  0  0  0  0  0  0  0  0  0  0  0
   -1.5122   -5.0484   -4.4353 H   0  0  0  0  0  0  0  0  0  0  0  0
   -5.4733   -8.3697   -1.3087 H   0  0  0  0  0  0  0  0  0  0  0  0
   -7.7850   -9.1207   -1.6891 H   0  0  0  0  0  0  0  0  0  0  0  0
   -8.9577   -8.5037   -3.7620 H   0  0  0  0  0  0  0  0  0  0  0  0
   -7.8265   -7.1335   -5.4637 H   0  0  0  0  0  0  0  0  0  0  0  0
   -5.5189   -6.3643   -5.0946 H   0  0  0  0  0  0  0  0  0  0  0  0
   -0.8239   -3.1494    2.8048 H   0  0  0  0  0  0  0  0  0  0  0  0
    0.9698   -3.1088    2.7959 H   0  0  0  0  0  0  0  0  0  0  0  0
    1.6793   -2.1365    4.5333 H   0  0  0  0  0  0  0  0  0  0  0  0
    2.0579   -0.5344    3.8253 H   0  0  0  0  0  0  0  0  0  0  0  0
    1.4050   -0.6965    6.4424 H   0  0  0  0  0  0  0  0  0  0  0  0
    0.7090    0.6264    5.4499 H   0  0  0  0  0  0  0  0  0  0  0  0
   -0.5766   -2.0461    6.2351 H   0  0  0  0  0  0  0  0  0  0  0  0
   -1.2760   -0.4007    6.3501 H   0  0  0  0  0  0  0  0  0  0  0  0
   -1.7936   -0.3277    4.0730 H   0  0  0  0  0  0  0  0  0  0  0  0
   -1.7621   -2.1085    4.2190 H   0  0  0  0  0  0  0  0  0  0  0  0
    0.0071    0.7657    2.6125 H   0  0  0  0  0  0  0  0  0  0  0  0
  1  2  1  0  0  0  0
  1 39  1  0  0  0  0
  1 40  1  0  0  0  0
  1 41  1  0  0  0  0
  2 31  1  0  0  0  0
  2  3  1  0  0  0  0
  3  4  2  0  0  0  0
  3  5  1  0  0  0  0
  5  9  1  0  0  0  0
  5  6  2  0  0  0  0
  6  7  1  0  0  0  0
  6 30  1  0  0  0  0
  7  8  2  0  0  0  0
  8  9  1  0  0  0  0
  8 17  1  0  0  0  0
  9 10  1  0  0  0  0
 10 11  1  0  0  0  0
 10 42  1  0  0  0  0
 10 43  1  0  0  0  0
 11 16  2  0  0  0  0
 11 12  1  0  0  0  0
 12 13  2  0  0  0  0
 12 44  1  0  0  0  0
 13 14  1  0  0  0  0
 13 45  1  0  0  0  0
 14 15  2  0  0  0  0
 14 46  1  0  0  0  0
 15 16  1  0  0  0  0
 15 47  1  0  0  0  0
 16 48  1  0  0  0  0
 17 18  1  0  0  0  0
 17 49  1  0  0  0  0
 17 50  1  0  0  0  0
 18 23  2  0  0  0  0
 18 19  1  0  0  0  0
 19 20  2  0  0  0  0
 19 51  1  0  0  0  0
 20 21  1  0  0  0  0
 20 52  1  0  0  0  0
 21 22  2  0  0  0  0
 21 24  1  0  0  0  0
 22 23  1  0  0  0  0
 22 53  1  0  0  0  0
 23 54  1  0  0  0  0
 24 29  2  0  0  0  0
 24 25  1  0  0  0  0
 25 26  2  0  0  0  0
 25 55  1  0  0  0  0
 26 27  1  0  0  0  0
 26 56  1  0  0  0  0
 27 28  2  0  0  0  0
 27 57  1  0  0  0  0
 28 29  1  0  0  0  0
 28 58  1  0  0  0  0
 29 59  1  0  0  0  0
 30 34  1  0  0  0  0
 30 31  1  0  0  0  0
 31 32  2  0  0  0  0
 32 33  1  0  0  0  0
 32 70  1  0  0  0  0
 33 38  1  0  0  0  0
 33 34  1  0  0  0  0
 33 35  1  0  0  0  0
 34 60  1  0  0  0  0
 34 61  1  0  0  0  0
 35 36  1  0  0  0  0
 35 62  1  0  0  0  0
 35 63  1  0  0  0  0
 36 37  1  0  0  0  0
 36 64  1  0  0  0  0
 36 65  1  0  0  0  0
 37 38  1  0  0  0  0
 37 66  1  0  0  0  0
 37 67  1  0  0  0  0
 38 68  1  0  0  0  0
 38 69  1  0  0  0  0
M  CHG  1  32   1
M  END
$$$$
CHEMBL192
  -OEChem-07121202283D

 63 66  0     0  0  0  0  0  0999 V2000
   -0.0187    1.5258    0.0104 C   0  0  0  0  0  0  0  0  0  0  0  0
    0.0021   -0.0041    0.0020 C   0  0  0  0  0  0  0  0  0  0  0  0
    0.7421   -0.5109    1.2415 C   0  0  0  0  0  0  0  0  0  0  0  0
    0.7625   -2.0177    1.2333 C   0  0  0  0  0  0  0  0  0  0  0  0
   -0.2150   -2.8548    1.8056 C   0  0  0  0  0  0  0  0  0  0  0  0
    0.1902   -4.1752    1.5714 C   0  0  0  0  0  0  0  0  0  0  0  0
   -0.6206   -5.2316    2.0475 C   0  0  0  0  0  0  0  0  0  0  0  0
   -0.3025   -6.3939    1.8644 O   0  0  0  0  0  0  0  0  0  0  0  0
   -1.7563   -4.9210    2.7109 N   0  0  0  0  0  0  0  0  0  0  0  0
   -2.1037   -3.6124    2.9108 C   0  0  0  0  0  0  0  0  0  0  0  0
   -1.3622   -2.6230    2.4750 N   0  0  0  0  0  0  0  0  0  0  0  0
   -3.3512   -3.3058    3.6384 C   0  0  0  0  0  0  0  0  0  0  0  0
   -4.1568   -4.3406    4.1177 C   0  0  0  0  0  0  0  0  0  0  0  0
   -5.3206   -4.0479    4.7963 C   0  0  0  0  0  0  0  0  0  0  0  0
   -5.6950   -2.7309    5.0048 C   0  0  0  0  0  0  0  0  0  0  0  0
   -4.9069   -1.6982    4.5358 C   0  0  0  0  0  0  0  0  0  0  0  0
   -3.7303   -1.9750    3.8568 C   0  0  0  0  0  0  0  0  0  0  0  0
   -2.9520   -0.9610    3.4003 O   0  0  0  0  0  0  0  0  0  0  0  0
   -3.4024    0.3701    3.6603 C   0  0  0  0  0  0  0  0  0  0  0  0
   -2.4032    1.3700    3.0749 C   0  0  0  0  0  0  0  0  0  0  0  0
   -6.3362   -5.3548    5.4005 S   0  0  0  0  0  0  0  0  0  0  0  0
   -7.6485   -4.8245    5.5261 O   0  0  0  0  0  0  0  0  0  0  0  0
   -6.0483   -6.4949    4.6027 O   0  0  0  0  0  0  0  0  0  0  0  0
   -5.8195   -5.7075    6.9338 N   0  0  0  0  0  0  0  0  0  0  0  0
   -4.7688   -6.7105    7.1644 C   0  0  0  0  0  0  0  0  0  0  0  0
   -3.6902   -6.0890    8.0580 C   0  0  0  0  0  0  0  0  0  0  0  0
   -4.3156   -5.5536    9.2747 N   0  0  0  0  0  0  0  0  0  0  0  0
   -5.2565   -4.4709    8.9580 C   0  0  0  0  0  0  0  0  0  0  0  0
   -6.3950   -5.0217    8.1008 C   0  0  0  0  0  0  0  0  0  0  0  0
   -3.2989   -5.1035   10.2348 C   0  0  0  0  0  0  0  0  0  0  0  0
    1.3696   -4.1140    0.8826 N   0  0  0  0  0  0  0  0  0  0  0  0
    1.6863   -2.7630    0.6895 N   0  0  0  0  0  0  0  0  0  0  0  0
    2.1603   -5.2589    0.4238 C   0  0  0  0  0  0  0  0  0  0  0  0
    1.0039    1.9031    0.0027 H   0  0  0  0  0  0  0  0  0  0  0  0
   -0.5459    1.8868   -0.8726 H   0  0  0  0  0  0  0  0  0  0  0  0
   -0.5289    1.8773    0.9072 H   0  0  0  0  0  0  0  0  0  0  0  0
   -1.0205   -0.3814    0.0098 H   0  0  0  0  0  0  0  0  0  0  0  0
    0.5123   -0.3556   -0.8948 H   0  0  0  0  0  0  0  0  0  0  0  0
    1.7647   -0.1336    1.2338 H   0  0  0  0  0  0  0  0  0  0  0  0
    0.2319   -0.1594    2.1383 H   0  0  0  0  0  0  0  0  0  0  0  0
   -3.8689   -5.3690    3.9567 H   0  0  0  0  0  0  0  0  0  0  0  0
   -6.6086   -2.5102    5.5368 H   0  0  0  0  0  0  0  0  0  0  0  0
   -5.2055   -0.6736    4.7018 H   0  0  0  0  0  0  0  0  0  0  0  0
   -4.3787    0.5198    3.1993 H   0  0  0  0  0  0  0  0  0  0  0  0
   -3.4814    0.5232    4.7366 H   0  0  0  0  0  0  0  0  0  0  0  0
   -1.4269    1.2202    3.5359 H   0  0  0  0  0  0  0  0  0  0  0  0
   -2.3241    1.2168    1.9986 H   0  0  0  0  0  0  0  0  0  0  0  0
   -2.7467    2.3853    3.2732 H   0  0  0  0  0  0  0  0  0  0  0  0
   -5.1969   -7.5821    7.6594 H   0  0  0  0  0  0  0  0  0  0  0  0
   -4.3293   -7.0061    6.2117 H   0  0  0  0  0  0  0  0  0  0  0  0
   -2.9595   -6.8508    8.3296 H   0  0  0  0  0  0  0  0  0  0  0  0
   -3.1923   -5.2824    7.5198 H   0  0  0  0  0  0  0  0  0  0  0  0
   -5.6618   -4.0593    9.8823 H   0  0  0  0  0  0  0  0  0  0  0  0
   -4.7368   -3.6869    8.4073 H   0  0  0  0  0  0  0  0  0  0  0  0
   -7.0302   -4.2013    7.7669 H   0  0  0  0  0  0  0  0  0  0  0  0
   -6.9824   -5.7279    8.6876 H   0  0  0  0  0  0  0  0  0  0  0  0
   -2.6915   -4.3207    9.7805 H   0  0  0  0  0  0  0  0  0  0  0  0
   -3.7891   -4.7119   11.1261 H   0  0  0  0  0  0  0  0  0  0  0  0
   -2.6618   -5.9440   10.5101 H   0  0  0  0  0  0  0  0  0  0  0  0
    1.8382   -5.5450   -0.5774 H   0  0  0  0  0  0  0  0  0  0  0  0
    3.2154   -4.9863    0.4020 H   0  0  0  0  0  0  0  0  0  0  0  0
    2.0155   -6.0970    1.1055 H   0  0  0  0  0  0  0  0  0  0  0  0
   -2.3282   -5.6289    3.0467 H   0  0  0  0  0  0  0  0  0  0  0  0
  1  2  1  0  0  0  0
  1 34  1  0  0  0  0
  1 35  1  0  0  0  0
  1 36  1  0  0  0  0
  2  3  1  0  0  0  0
  2 37  1  0  0  0  0
  2 38  1  0  0  0  0
  3  4  1  0  0  0  0
  3 39  1  0  0  0  0
  3 40  1  0  0  0  0
  4 32  2  0  0  0  0
  4  5  1  0  0  0  0
  5 11  1  0  0  0  0
  5  6  2  0  0  0  0
  6  7  1  0  0  0  0
  6 31  1  0  0  0  0
  7  8  2  0  0  0  0
  7  9  1  0  0  0  0
  9 10  1  0  0  0  0
  9 63  1  0  0  0  0
 10 11  2  0  0  0  0
 10 12  1  0  0  0  0
 12 17  2  0  0  0  0
 12 13  1  0  0  0  0
 13 14  2  0  0  0  0
 13 41  1  0  0  0  0
 14 15  1  0  0  0  0
 14 21  1  0  0  0  0
 15 16  2  0  0  0  0
 15 42  1  0  0  0  0
 16 17  1  0  0  0  0
 16 43  1  0  0  0  0
 17 18  1  0  0  0  0
 18 19  1  0  0  0  0
 19 20  1  0  0  0  0
 19 44  1  0  0  0  0
 19 45  1  0  0  0  0
 20 46  1  0  0  0  0
 20 47  1  0  0  0  0
 20 48  1  0  0  0  0
 21 22  2  0  0  0  0
 21 23  2  0  0  0  0
 21 24  1  0  0  0  0
 24 29  1  0  0  0  0
 24 25  1  0  0  0  0
 25 26  1  0  0  0  0
 25 49  1  0  0  0  0
 25 50  1  0  0  0  0
 26 27  1  0  0  0  0
 26 51  1  0  0  0  0
 26 52  1  0  0  0  0
 27 28  1  0  0  0  0
 27 30  1  0  0  0  0
 28 29  1  0  0  0  0
 28 53  1  0  0  0  0
 28 54  1  0  0  0  0
 29 55  1  0  0  0  0
 29 56  1  0  0  0  0
 30 57  1  0  0  0  0
 30 58  1  0  0  0  0
 30 59  1  0  0  0  0
 31 32  1  0  0  0  0
 31 33  1  0  0  0  0
 33 60  1  0  0  0  0
 33 61  1  0  0  0  0
 33 62  1  0  0  0  0
M  END
$$$$
CHEMBL192
  -OEChem-07121202283D

 63 66  0     0  0  0  0  0  0999 V2000
   -0.0187    1.5258    0.0104 C   0  0  0  0  0  0  0  0  0  0  0  0
    0.0021   -0.0041    0.0020 C   0  0  0  0  0  0  0  0  0  0  0  0
   -1.4333   -0.5336    0.0129 C   0  0  0  0  0  0  0  0  0  0  0  0
   -1.4129   -2.0405    0.0046 C   0  0  0  0  0  0  0  0  0  0  0  0
   -1.4071   -2.8493   -1.1371 C   0  0  0  0  0  0  0  0  0  0  0  0
   -1.3871   -4.1737   -0.7055 C   0  0  0  0  0  0  0  0  0  0  0  0
   -1.3778   -5.2332   -1.7158 C   0  0  0  0  0  0  0  0  0  0  0  0
   -1.3607   -6.4084   -1.3854 O   0  0  0  0  0  0  0  0  0  0  0  0
   -1.3888   -4.8868   -3.0129 N   0  0  0  0  0  0  0  0  0  0  0  0
   -1.4076   -3.6251   -3.3867 C   0  0  0  0  0  0  0  0  0  0  0  0
   -1.4171   -2.5975   -2.4964 N   0  0  0  0  0  0  0  0  0  0  0  0
   -1.4310   -1.6821   -2.8169 H   0  0  0  0  0  0  0  0  0  0  0  0
   -1.4188   -3.3135   -4.8285 C   0  0  0  0  0  0  0  0  0  0  0  0
   -1.4330   -1.9848   -5.2600 C   0  0  0  0  0  0  0  0  0  0  0  0
   -1.4429   -1.7003   -6.6083 C   0  0  0  0  0  0  0  0  0  0  0  0
   -1.4394   -2.7264   -7.5391 C   0  0  0  0  0  0  0  0  0  0  0  0
   -1.4259   -4.0440   -7.1262 C   0  0  0  0  0  0  0  0  0  0  0  0
   -1.4095   -4.3485   -5.7734 C   0  0  0  0  0  0  0  0  0  0  0  0
   -1.3901   -5.6427   -5.3664 O   0  0  0  0  0  0  0  0  0  0  0  0
   -1.3816   -6.6435   -6.3863 C   0  0  0  0  0  0  0  0  0  0  0  0
   -1.3598   -8.0302   -5.7401 C   0  0  0  0  0  0  0  0  0  0  0  0
   -1.4608   -0.0240   -7.1509 S   0  0  0  0  0  0  0  0  0  0  0  0
   -2.0188   -0.0261   -8.4578 O   0  0  0  0  0  0  0  0  0  0  0  0
   -2.0126    0.7410   -6.0882 O   0  0  0  0  0  0  0  0  0  0  0  0
    0.1161    0.4558   -7.3104 N   0  0  0  0  0  0  0  0  0  0  0  0
    0.8400    1.0577   -6.1804 C   0  0  0  0  0  0  0  0  0  0  0  0
    2.1678    0.3139   -6.0012 C   0  0  0  0  0  0  0  0  0  0  0  0
    2.8987    0.3093   -7.2754 N   0  0  0  0  0  0  0  0  0  0  0  0
    2.1581   -0.4223   -8.3119 C   0  0  0  0  0  0  0  0  0  0  0  0
    0.8318    0.2857   -8.5841 C   0  0  0  0  0  0  0  0  0  0  0  0
    4.2496   -0.2421   -7.1054 C   0  0  0  0  0  0  0  0  0  0  0  0
   -1.3812   -4.1503    0.6589 N   0  0  0  0  0  0  0  0  0  0  0  0
   -1.3919   -2.8081    1.0635 N   0  0  0  0  0  0  0  0  0  0  0  0
   -1.3621   -5.3186    1.5427 C   0  0  0  0  0  0  0  0  0  0  0  0
    1.0039    1.9031    0.0027 H   0  0  0  0  0  0  0  0  0  0  0  0
   -0.5459    1.8868   -0.8726 H   0  0  0  0  0  0  0  0  0  0  0  0
   -0.5289    1.8773    0.9072 H   0  0  0  0  0  0  0  0  0  0  0  0
    0.5123   -0.3556   -0.8948 H   0  0  0  0  0  0  0  0  0  0  0  0
    0.5293   -0.3651    0.8851 H   0  0  0  0  0  0  0  0  0  0  0  0
   -1.9435   -0.1821    0.9097 H   0  0  0  0  0  0  0  0  0  0  0  0
   -1.9605   -0.1726   -0.8702 H   0  0  0  0  0  0  0  0  0  0  0  0
   -1.4365   -1.1817   -4.5379 H   0  0  0  0  0  0  0  0  0  0  0  0
   -1.4477   -2.4944   -8.5939 H   0  0  0  0  0  0  0  0  0  0  0  0
   -1.4240   -4.8384   -7.8579 H   0  0  0  0  0  0  0  0  0  0  0  0
   -2.2760   -6.5432   -7.0012 H   0  0  0  0  0  0  0  0  0  0  0  0
   -0.4962   -6.5193   -7.0099 H   0  0  0  0  0  0  0  0  0  0  0  0
   -2.2452   -8.1544   -5.1166 H   0  0  0  0  0  0  0  0  0  0  0  0
   -1.3533   -8.7936   -6.5181 H   0  0  0  0  0  0  0  0  0  0  0  0
   -0.4655   -8.1304   -5.1252 H   0  0  0  0  0  0  0  0  0  0  0  0
    1.0349    2.1097   -6.3891 H   0  0  0  0  0  0  0  0  0  0  0  0
    0.2435    0.9660   -5.2728 H   0  0  0  0  0  0  0  0  0  0  0  0
    2.7659    0.8157   -5.2406 H   0  0  0  0  0  0  0  0  0  0  0  0
    1.9708   -0.7123   -5.6911 H   0  0  0  0  0  0  0  0  0  0  0  0
    2.7492   -0.4545   -9.2271 H   0  0  0  0  0  0  0  0  0  0  0  0
    1.9612   -1.4383   -7.9696 H   0  0  0  0  0  0  0  0  0  0  0  0
    0.2298   -0.3162   -9.2648 H   0  0  0  0  0  0  0  0  0  0  0  0
    1.0259    1.2621   -9.0282 H   0  0  0  0  0  0  0  0  0  0  0  0
    4.1805   -1.2661   -6.7384 H   0  0  0  0  0  0  0  0  0  0  0  0
    4.7686   -0.2339   -8.0639 H   0  0  0  0  0  0  0  0  0  0  0  0
    4.8020    0.3646   -6.3879 H   0  0  0  0  0  0  0  0  0  0  0  0
   -0.3297   -5.5950    1.7572 H   0  0  0  0  0  0  0  0  0  0  0  0
   -1.8748   -5.0782    2.4740 H   0  0  0  0  0  0  0  0  0  0  0  0
   -1.8673   -6.1519    1.0544 H   0  0  0  0  0  0  0  0  0  0  0  0
  1  2  1  0  0  0  0
  1 35  1  0  0  0  0
  1 36  1  0  0  0  0
  1 37  1  0  0  0  0
  2  3  1  0  0  0  0
  2 38  1  0  0  0  0
  2 39  1  0  0  0  0
  3  4  1  0  0  0  0
  3 40  1  0  0  0  0
  3 41  1  0  0  0  0
  4 33  2  0  0  0  0
  4  5  1  0  0  0  0
  5 11  1  0  0  0  0
  5  6  2  0  0  0  0
  6  7  1  0  0  0  0
  6 32  1  0  0  0  0
  7  8  2  0  0  0  0
  7  9  1  0  0  0  0
  9 10  2  0  0  0  0
 10 11  1  0  0  0  0
 10 13  1  0  0  0  0
 11 12  1  0  0  0  0
 13 18  2  0  0  0  0
 13 14  1  0  0  0  0
 14 15  2  0  0  0  0
 14 42  1  0  0  0  0
 15 16  1  0  0  0  0
 15 22  1  0  0  0  0
 16 17  2  0  0  0  0
 16 43  1  0  0  0  0
 17 18  1  0  0  0  0
 17 44  1  0  0  0  0
 18 19  1  0  0  0  0
 19 20  1  0  0  0  0
 20 21  1  0  0  0  0
 20 45  1  0  0  0  0
 20 46  1  0  0  0  0
 21 47  1  0  0  0  0
 21 48  1  0  0  0  0
 21 49  1  0  0  0  0
 22 23  2  0  0  0  0
 22 24  2  0  0  0  0
 22 25  1  0  0  0  0
 25 30  1  0  0  0  0
 25 26  1  0  0  0  0
 26 27  1  0  0  0  0
 26 50  1  0  0  0  0
 26 51  1  0  0  0  0
 27 28  1  0  0  0  0
 27 52  1  0  0  0  0
 27 53  1  0  0  0  0
 28 29  1  0  0  0  0
 28 31  1  0  0  0  0
 29 30  1  0  0  0  0
 29 54  1  0  0  0  0
 29 55  1  0  0  0  0
 30 56  1  0  0  0  0
 30 57  1  0  0  0  0
 31 58  1  0  0  0  0
 31 59  1  0  0  0  0
 31 60  1  0  0  0  0
 32 33  1  0  0  0  0
 32 34  1  0  0  0  0
 34 61  1  0  0  0  0
 34 62  1  0  0  0  0
 34 63  1  0  0  0  0
M  END
$$$$
CHEMBL192
  -OEChem-07121202283D

 64 67  0     0  0  0  0  0  0999 V2000
   -0.0187    1.5258    0.0104 C   0  0  0  0  0  0  0  0  0  0  0  0
    0.0021   -0.0041    0.0020 C   0  0  0  0  0  0  0  0  0  0  0  0
    0.7421   -0.5109    1.2415 C   0  0  0  0  0  0  0  0  0  0  0  0
    0.7625   -2.0177    1.2333 C   0  0  0  0  0  0  0  0  0  0  0  0
   -0.2150   -2.8548    1.8056 C   0  0  0  0  0  0  0  0  0  0  0  0
    0.1902   -4.1752    1.5714 C   0  0  0  0  0  0  0  0  0  0  0  0
   -0.6206   -5.2316    2.0475 C   0  0  0  0  0  0  0  0  0  0  0  0
   -0.3025   -6.3939    1.8644 O   0  0  0  0  0  0  0  0  0  0  0  0
   -1.7563   -4.9210    2.7109 N   0  0  0  0  0  0  0  0  0  0  0  0
   -2.1037   -3.6124    2.9108 C   0  0  0  0  0  0  0  0  0  0  0  0
   -1.3622   -2.6230    2.4750 N   0  0  0  0  0  0  0  0  0  0  0  0
   -3.3512   -3.3058    3.6384 C   0  0  0  0  0  0  0  0  0  0  0  0
   -4.1568   -4.3406    4.1177 C   0  0  0  0  0  0  0  0  0  0  0  0
   -5.3206   -4.0479    4.7963 C   0  0  0  0  0  0  0  0  0  0  0  0
   -5.6950   -2.7309    5.0048 C   0  0  0  0  0  0  0  0  0  0  0  0
   -4.9069   -1.6982    4.5358 C   0  0  0  0  0  0  0  0  0  0  0  0
   -3.7303   -1.9750    3.8568 C   0  0  0  0  0  0  0  0  0  0  0  0
   -2.9520   -0.9610    3.4003 O   0  0  0  0  0  0  0  0  0  0  0  0
   -3.4024    0.3701    3.6603 C   0  0  0  0  0  0  0  0  0  0  0  0
   -2.4032    1.3700    3.0749 C   0  0  0  0  0  0  0  0  0  0  0  0
   -6.3362   -5.3548    5.4005 S   0  0  0  0  0  0  0  0  0  0  0  0
   -7.6485   -4.8245    5.5261 O   0  0  0  0  0  0  0  0  0  0  0  0
   -6.0483   -6.4949    4.6027 O   0  0  0  0  0  0  0  0  0  0  0  0
   -5.8195   -5.7075    6.9338 N   0  0  0  0  0  0  0  0  0  0  0  0
   -4.7686   -6.7104    7.1660 C   0  0  0  0  0  0  0  0  0  0  0  0
   -3.7007   -6.0934    8.0752 C   0  0  0  0  0  0  0  0  0  0  0  0
   -4.3347   -5.5856    9.2984 N   0  3  0  0  0  0  0  0  0  0  0  0
   -5.2533   -4.4890    8.9674 C   0  0  0  0  0  0  0  0  0  0  0  0
   -6.3942   -5.0224    8.1020 C   0  0  0  0  0  0  0  0  0  0  0  0
   -3.2989   -5.0940   10.2168 C   0  0  0  0  0  0  0  0  0  0  0  0
    1.3696   -4.1140    0.8826 N   0  0  0  0  0  0  0  0  0  0  0  0
    1.6863   -2.7630    0.6895 N   0  0  0  0  0  0  0  0  0  0  0  0
    2.1603   -5.2589    0.4238 C   0  0  0  0  0  0  0  0  0  0  0  0
    1.0039    1.9031    0.0027 H   0  0  0  0  0  0  0  0  0  0  0  0
   -0.5459    1.8868   -0.8726 H   0  0  0  0  0  0  0  0  0  0  0  0
   -0.5289    1.8773    0.9072 H   0  0  0  0  0  0  0  0  0  0  0  0
   -1.0205   -0.3814    0.0098 H   0  0  0  0  0  0  0  0  0  0  0  0
    0.5123   -0.3556   -0.8948 H   0  0  0  0  0  0  0  0  0  0  0  0
    1.7647   -0.1336    1.2338 H   0  0  0  0  0  0  0  0  0  0  0  0
    0.2319   -0.1594    2.1383 H   0  0  0  0  0  0  0  0  0  0  0  0
   -3.8689   -5.3690    3.9567 H   0  0  0  0  0  0  0  0  0  0  0  0
   -6.6086   -2.5102    5.5368 H   0  0  0  0  0  0  0  0  0  0  0  0
   -5.2055   -0.6736    4.7018 H   0  0  0  0  0  0  0  0  0  0  0  0
   -4.3787    0.5198    3.1993 H   0  0  0  0  0  0  0  0  0  0  0  0
   -3.4814    0.5232    4.7366 H   0  0  0  0  0  0  0  0  0  0  0  0
   -2.7467    2.3853    3.2732 H   0  0  0  0  0  0  0  0  0  0  0  0
   -1.4269    1.2202    3.5359 H   0  0  0  0  0  0  0  0  0  0  0  0
   -2.3241    1.2168    1.9986 H   0  0  0  0  0  0  0  0  0  0  0  0
   -5.1994   -7.5871    7.6496 H   0  0  0  0  0  0  0  0  0  0  0  0
   -4.3191   -6.9967    6.2151 H   0  0  0  0  0  0  0  0  0  0  0  0
   -2.9630   -6.8522    8.3362 H   0  0  0  0  0  0  0  0  0  0  0  0
   -3.2089   -5.2726    7.5531 H   0  0  0  0  0  0  0  0  0  0  0  0
   -5.6597   -4.0655    9.8859 H   0  0  0  0  0  0  0  0  0  0  0  0
   -4.7145   -3.7167    8.4183 H   0  0  0  0  0  0  0  0  0  0  0  0
   -7.0189   -4.1933    7.7697 H   0  0  0  0  0  0  0  0  0  0  0  0
   -6.9919   -5.7258    8.6817 H   0  0  0  0  0  0  0  0  0  0  0  0
   -2.7390   -4.2914    9.7369 H   0  0  0  0  0  0  0  0  0  0  0  0
   -3.7683   -4.7168   11.1254 H   0  0  0  0  0  0  0  0  0  0  0  0
   -2.6209   -5.9092   10.4697 H   0  0  0  0  0  0  0  0  0  0  0  0
    1.8382   -5.5450   -0.5774 H   0  0  0  0  0  0  0  0  0  0  0  0
    3.2154   -4.9863    0.4020 H   0  0  0  0  0  0  0  0  0  0  0  0
    2.0155   -6.0970    1.1055 H   0  0  0  0  0  0  0  0  0  0  0  0
   -2.3282   -5.6289    3.0467 H   0  0  0  0  0  0  0  0  0  0  0  0
   -4.8491   -6.3309    9.7435 H   0  0  0  0  0  0  0  0  0  0  0  0
  1  2  1  0  0  0  0
  1 34  1  0  0  0  0
  1 35  1  0  0  0  0
  1 36  1  0  0  0  0
  2  3  1  0  0  0  0
  2 37  1  0  0  0  0
  2 38  1  0  0  0  0
  3  4  1  0  0  0  0
  3 39  1  0  0  0  0
  3 40  1  0  0  0  0
  4 32  2  0  0  0  0
  4  5  1  0  0  0  0
  5 11  1  0  0  0  0
  5  6  2  0  0  0  0
  6  7  1  0  0  0  0
  6 31  1  0  0  0  0
  7  8  2  0  0  0  0
  7  9  1  0  0  0  0
  9 10  1  0  0  0  0
  9 63  1  0  0  0  0
 10 11  2  0  0  0  0
 10 12  1  0  0  0  0
 12 17  2  0  0  0  0
 12 13  1  0  0  0  0
 13 14  2  0  0  0  0
 13 41  1  0  0  0  0
 14 15  1  0  0  0  0
 14 21  1  0  0  0  0
 15 16  2  0  0  0  0
 15 42  1  0  0  0  0
 16 17  1  0  0  0  0
 16 43  1  0  0  0  0
 17 18  1  0  0  0  0
 18 19  1  0  0  0  0
 19 20  1  0  0  0  0
 19 44  1  0  0  0  0
 19 45  1  0  0  0  0
 20 46  1  0  0  0  0
 20 47  1  0  0  0  0
 20 48  1  0  0  0  0
 21 22  2  0  0  0  0
 21 23  2  0  0  0  0
 21 24  1  0  0  0  0
 24 29  1  0  0  0  0
 24 25  1  0  0  0  0
 25 26  1  0  0  0  0
 25 49  1  0  0  0  0
 25 50  1  0  0  0  0
 26 27  1  0  0  0  0
 26 51  1  0  0  0  0
 26 52  1  0  0  0  0
 27 28  1  0  0  0  0
 27 30  1  0  0  0  0
 27 64  1  0  0  0  0
 28 29  1  0  0  0  0
 28 53  1  0  0  0  0
 28 54  1  0  0  0  0
 29 55  1  0  0  0  0
 29 56  1  0  0  0  0
 30 57  1  0  0  0  0
 30 58  1  0  0  0  0
 30 59  1  0  0  0  0
 31 32  1  0  0  0  0
 31 33  1  0  0  0  0
 33 60  1  0  0  0  0
 33 61  1  0  0  0  0
 33 62  1  0  0  0  0
M  CHG  1  27   1
M  END
$$$$
CHEMBL192
  -OEChem-07121202283D

 62 65  0     0  0  0  0  0  0999 V2000
   -0.0187    1.5258    0.0104 C   0  0  0  0  0  0  0  0  0  0  0  0
    0.0021   -0.0041    0.0020 C   0  0  0  0  0  0  0  0  0  0  0  0
   -1.4333   -0.5336    0.0129 C   0  0  0  0  0  0  0  0  0  0  0  0
   -1.4129   -2.0405    0.0046 C   0  0  0  0  0  0  0  0  0  0  0  0
   -1.4070   -2.8569   -1.1475 C   0  0  0  0  0  0  0  0  0  0  0  0
   -1.3869   -4.1920   -0.7014 C   0  0  0  0  0  0  0  0  0  0  0  0
   -1.3777   -5.2165   -1.6565 C   0  0  0  0  0  0  0  0  0  0  0  0
   -1.3588   -6.5164   -1.2751 O   0  5  0  0  0  0  0  0  0  0  0  0
   -1.3884   -4.8893   -2.9402 N   0  0  0  0  0  0  0  0  0  0  0  0
   -1.4074   -3.6162   -3.3266 C   0  0  0  0  0  0  0  0  0  0  0  0
   -1.4163   -2.6161   -2.4630 N   0  0  0  0  0  0  0  0  0  0  0  0
   -1.4186   -3.3091   -4.7764 C   0  0  0  0  0  0  0  0  0  0  0  0
   -1.4328   -1.9850   -5.2116 C   0  0  0  0  0  0  0  0  0  0  0  0
   -1.4432   -1.7045   -6.5622 C   0  0  0  0  0  0  0  0  0  0  0  0
   -1.4396   -2.7334   -7.4883 C   0  0  0  0  0  0  0  0  0  0  0  0
   -1.4256   -4.0494   -7.0685 C   0  0  0  0  0  0  0  0  0  0  0  0
   -1.4092   -4.3463   -5.7145 C   0  0  0  0  0  0  0  0  0  0  0  0
   -1.3897   -5.6394   -5.3005 O   0  0  0  0  0  0  0  0  0  0  0  0
   -1.3811   -6.6454   -6.3153 C   0  0  0  0  0  0  0  0  0  0  0  0
   -1.3591   -8.0288   -5.6620 C   0  0  0  0  0  0  0  0  0  0  0  0
   -1.4617   -0.0302   -7.1108 S   0  0  0  0  0  0  0  0  0  0  0  0
   -2.0201   -0.0370   -8.4174 O   0  0  0  0  0  0  0  0  0  0  0  0
   -2.0135    0.7385   -6.0505 O   0  0  0  0  0  0  0  0  0  0  0  0
    0.1150    0.4496   -7.2724 N   0  0  0  0  0  0  0  0  0  0  0  0
    0.8390    1.0557   -6.1447 C   0  0  0  0  0  0  0  0  0  0  0  0
    2.1670    0.3130   -5.9632 C   0  0  0  0  0  0  0  0  0  0  0  0
    2.8976    0.3041   -7.2376 N   0  0  0  0  0  0  0  0  0  0  0  0
    2.1569   -0.4314   -8.2713 C   0  0  0  0  0  0  0  0  0  0  0  0
    0.8304    0.2753   -8.5456 C   0  0  0  0  0  0  0  0  0  0  0  0
    4.2487   -0.2463   -7.0660 C   0  0  0  0  0  0  0  0  0  0  0  0
   -1.3812   -4.1504    0.6672 N   0  0  0  0  0  0  0  0  0  0  0  0
   -1.3920   -2.8055    1.0596 N   0  0  0  0  0  0  0  0  0  0  0  0
   -1.3618   -5.3088    1.5638 C   0  0  0  0  0  0  0  0  0  0  0  0
    1.0039    1.9031    0.0027 H   0  0  0  0  0  0  0  0  0  0  0  0
   -0.5459    1.8868   -0.8726 H   0  0  0  0  0  0  0  0  0  0  0  0
   -0.5289    1.8773    0.9072 H   0  0  0  0  0  0  0  0  0  0  0  0
    0.5123   -0.3556   -0.8948 H   0  0  0  0  0  0  0  0  0  0  0  0
    0.5293   -0.3651    0.8851 H   0  0  0  0  0  0  0  0  0  0  0  0
   -1.9435   -0.1821    0.9097 H   0  0  0  0  0  0  0  0  0  0  0  0
   -1.9605   -0.1726   -0.8702 H   0  0  0  0  0  0  0  0  0  0  0  0
   -1.4360   -1.1795   -4.4922 H   0  0  0  0  0  0  0  0  0  0  0  0
   -1.4482   -2.5062   -8.5441 H   0  0  0  0  0  0  0  0  0  0  0  0
   -1.4233   -4.8477   -7.7959 H   0  0  0  0  0  0  0  0  0  0  0  0
   -2.2755   -6.5484   -6.9307 H   0  0  0  0  0  0  0  0  0  0  0  0
   -0.4957   -6.5243   -6.9395 H   0  0  0  0  0  0  0  0  0  0  0  0
   -1.3526   -8.7961   -6.4360 H   0  0  0  0  0  0  0  0  0  0  0  0
   -0.4647   -8.1258   -5.0466 H   0  0  0  0  0  0  0  0  0  0  0  0
   -2.2445   -8.1499   -5.0378 H   0  0  0  0  0  0  0  0  0  0  0  0
    1.0335    2.1070   -6.3571 H   0  0  0  0  0  0  0  0  0  0  0  0
    0.2427    0.9670   -5.2366 H   0  0  0  0  0  0  0  0  0  0  0  0
    2.7652    0.8176   -5.2045 H   0  0  0  0  0  0  0  0  0  0  0  0
    1.9704   -0.7122   -5.6495 H   0  0  0  0  0  0  0  0  0  0  0  0
    2.7478   -0.4666   -9.1865 H   0  0  0  0  0  0  0  0  0  0  0  0
    1.9605   -1.4462   -7.9254 H   0  0  0  0  0  0  0  0  0  0  0  0
    0.2284   -0.3292   -9.2240 H   0  0  0  0  0  0  0  0  0  0  0  0
    1.0240    1.2501   -8.9932 H   0  0  0  0  0  0  0  0  0  0  0  0
    4.1801   -1.2690   -6.6954 H   0  0  0  0  0  0  0  0  0  0  0  0
    4.7675   -0.2413   -8.0246 H   0  0  0  0  0  0  0  0  0  0  0  0
    4.8011    0.3631   -6.3508 H   0  0  0  0  0  0  0  0  0  0  0  0
   -0.3294   -5.5825    1.7815 H   0  0  0  0  0  0  0  0  0  0  0  0
   -1.8748   -5.0582    2.4923 H   0  0  0  0  0  0  0  0  0  0  0  0
   -1.8667   -6.1476    1.0847 H   0  0  0  0  0  0  0  0  0  0  0  0
  1  2  1  0  0  0  0
  1 34  1  0  0  0  0
  1 35  1  0  0  0  0
  1 36  1  0  0  0  0
  2  3  1  0  0  0  0
  2 37  1  0  0  0  0
  2 38  1  0  0  0  0
  3  4  1  0  0  0  0
  3 39  1  0  0  0  0
  3 40  1  0  0  0  0
  4 32  2  0  0  0  0
  4  5  1  0  0  0  0
  5 11  2  0  0  0  0
  5  6  1  0  0  0  0
  6  7  2  0  0  0  0
  6 31  1  0  0  0  0
  7  8  1  0  0  0  0
  7  9  1  0  0  0  0
  9 10  2  0  0  0  0
 10 11  1  0  0  0  0
 10 12  1  0  0  0  0
 12 17  2  0  0  0  0
 12 13  1  0  0  0  0
 13 14  2  0  0  0  0
 13 41  1  0  0  0  0
 14 15  1  0  0  0  0
 14 21  1  0  0  0  0
 15 16  2  0  0  0  0
 15 42  1  0  0  0  0
 16 17  1  0  0  0  0
 16 43  1  0  0  0  0
 17 18  1  0  0  0  0
 18 19  1  0  0  0  0
 19 20  1  0  0  0  0
 19 44  1  0  0  0  0
 19 45  1  0  0  0  0
 20 46  1  0  0  0  0
 20 47  1  0  0  0  0
 20 48  1  0  0  0  0
 21 22  2  0  0  0  0
 21 23  2  0  0  0  0
 21 24  1  0  0  0  0
 24 29  1  0  0  0  0
 24 25  1  0  0  0  0
 25 26  1  0  0  0  0
 25 49  1  0  0  0  0
 25 50  1  0  0  0  0
 26 27  1  0  0  0  0
 26 51  1  0  0  0  0
 26 52  1  0  0  0  0
 27 28  1  0  0  0  0
 27 30  1  0  0  0  0
 28 29  1  0  0  0  0
 28 53  1  0  0  0  0
 28 54  1  0  0  0  0
 29 55  1  0  0  0  0
 29 56  1  0  0  0  0
 30 57  1  0  0  0  0
 30 58  1  0  0  0  0
 30 59  1  0  0  0  0
 31 32  1  0  0  0  0
 31 33  1  0  0  0  0
 33 60  1  0  0  0  0
 33 61  1  0  0  0  0
 33 62  1  0  0  0  0
M  CHG  1   8  -1
M  END
$$$$
CHEMBL138949
  -OEChem-07121202283D

 55 61  0     1  0  0  0  0  0999 V2000
   -0.0165    1.3628    0.0095 C   0  0  0  0  0  0  0  0  0  0  0  0
    1.1698    2.0838    0.0021 C   0  0  0  0  0  0  0  0  0  0  0  0
    2.3862    1.4376   -0.0135 C   0  0  0  0  0  0  0  0  0  0  0  0
    2.4284    0.0458   -0.0214 C   0  0  0  0  0  0  0  0  0  0  0  0
    1.2231   -0.6777   -0.0133 C   0  0  0  0  0  0  0  0  0  0  0  0
    0.0021   -0.0041    0.0020 C   0  0  0  0  0  0  0  0  0  0  0  0
    1.2934   -2.1480   -0.0219 C   0  0  0  0  0  0  0  0  0  0  0  0
    2.5744   -2.7535   -0.0380 C   0  0  0  0  0  0  0  0  0  0  0  0
    3.6874   -1.9921   -0.0449 C   0  0  0  0  0  0  0  0  0  0  0  0
    3.6240   -0.6315   -0.0374 N   0  0  0  0  0  0  0  0  0  0  0  0
    4.9010   -2.8944   -0.0614 C   0  0  2  0  0  0  0  0  0  0  0  0
    4.4244   -4.2808   -0.0638 N   0  0  0  0  0  0  0  0  0  0  0  0
    2.9595   -4.2121   -0.0492 C   0  0  0  0  0  0  0  0  0  0  0  0
    5.1813   -5.3958   -0.0778 C   0  0  0  0  0  0  0  0  0  0  0  0
    6.3950   -5.3073   -0.0901 O   0  0  0  0  0  0  0  0  0  0  0  0
    4.5423   -6.7160   -0.0782 C   0  0  0  0  0  0  0  0  0  0  0  0
    5.1908   -7.9196   -0.0860 C   0  0  0  0  0  0  0  0  0  0  0  0
    4.2054   -8.9129   -0.0827 C   0  0  0  0  0  0  0  0  0  0  0  0
    2.9973   -8.2773   -0.0731 C   0  0  0  0  0  0  0  0  0  0  0  0
    3.2142   -6.9510   -0.0650 O   0  0  0  0  0  0  0  0  0  0  0  0
    1.6749   -8.9361   -0.0667 C   0  0  0  0  0  0  0  0  0  0  0  0
    1.5663  -10.3322   -0.0644 C   0  0  0  0  0  0  0  0  0  0  0  0
    0.3115  -10.9051   -0.0584 C   0  0  0  0  0  0  0  0  0  0  0  0
   -0.7751  -10.1568   -0.0553 N   0  0  0  0  0  0  0  0  0  0  0  0
   -0.7180   -8.8387   -0.0573 C   0  0  0  0  0  0  0  0  0  0  0  0
    0.4950   -8.1820   -0.0569 C   0  0  0  0  0  0  0  0  0  0  0  0
    5.7400   -2.6447    1.1653 C   0  0  0  0  0  0  0  0  0  0  0  0
    5.3847   -3.2176    2.3723 C   0  0  0  0  0  0  0  0  0  0  0  0
    6.1514   -2.9919    3.5002 C   0  0  0  0  0  0  0  0  0  0  0  0
    7.2785   -2.1899    3.4234 C   0  0  0  0  0  0  0  0  0  0  0  0
    7.6364   -1.6128    2.2075 C   0  0  0  0  0  0  0  0  0  0  0  0
    6.8665   -1.8480    1.0799 C   0  0  0  0  0  0  0  0  0  0  0  0
    8.7708   -0.8762    2.3914 O   0  0  0  0  0  0  0  0  0  0  0  0
    8.8731   -0.6764    3.8137 C   0  0  0  0  0  0  0  0  0  0  0  0
    8.1887   -1.8150    4.3690 O   0  0  0  0  0  0  0  0  0  0  0  0
    0.2786   -2.8253   -0.0151 O   0  0  0  0  0  0  0  0  0  0  0  0
   -0.9613    1.8858    0.0259 H   0  0  0  0  0  0  0  0  0  0  0  0
    1.1386    3.1633    0.0082 H   0  0  0  0  0  0  0  0  0  0  0  0
    3.3032    2.0080   -0.0199 H   0  0  0  0  0  0  0  0  0  0  0  0
   -0.9242   -0.5595    0.0083 H   0  0  0  0  0  0  0  0  0  0  0  0
    5.4905   -2.7047   -0.9584 H   0  0  0  0  0  0  0  0  0  0  0  0
    2.5749   -4.7034    0.8446 H   0  0  0  0  0  0  0  0  0  0  0  0
    2.5575   -4.6942   -0.9403 H   0  0  0  0  0  0  0  0  0  0  0  0
    6.2596   -8.0742   -0.0938 H   0  0  0  0  0  0  0  0  0  0  0  0
    4.3694   -9.9804   -0.0873 H   0  0  0  0  0  0  0  0  0  0  0  0
    2.4515  -10.9510   -0.0676 H   0  0  0  0  0  0  0  0  0  0  0  0
    0.2172  -11.9809   -0.0566 H   0  0  0  0  0  0  0  0  0  0  0  0
   -1.6337   -8.2660   -0.0550 H   0  0  0  0  0  0  0  0  0  0  0  0
    0.5342   -7.1027   -0.0538 H   0  0  0  0  0  0  0  0  0  0  0  0
    4.5060   -3.8425    2.4343 H   0  0  0  0  0  0  0  0  0  0  0  0
    5.8715   -3.4407    4.4418 H   0  0  0  0  0  0  0  0  0  0  0  0
    7.1442   -1.4054    0.1348 H   0  0  0  0  0  0  0  0  0  0  0  0
    9.9177   -0.6681    4.1251 H   0  0  0  0  0  0  0  0  0  0  0  0
    8.3775    0.2490    4.1071 H   0  0  0  0  0  0  0  0  0  0  0  0
    4.4504   -0.1236   -0.0431 H   0  0  0  0  0  0  0  0  0  0  0  0
  1  6  2  0  0  0  0
  1  2  1  0  0  0  0
  1 37  1  0  0  0  0
  2  3  2  0  0  0  0
  2 38  1  0  0  0  0
  3  4  1  0  0  0  0
  3 39  1  0  0  0  0
  4 10  1  0  0  0  0
  4  5  2  0  0  0  0
  5  6  1  0  0  0  0
  5  7  1  0  0  0  0
  6 40  1  0  0  0  0
  7  8  1  0  0  0  0
  7 36  2  0  0  0  0
  8 13  1  0  0  0  0
  8  9  2  0  0  0  0
  9 10  1  0  0  0  0
  9 11  1  0  0  0  0
 10 55  1  0  0  0  0
 11 12  1  0  0  0  0
 11 27  1  0  0  0  0
 11 41  1  0  0  0  0
 12 13  1  0  0  0  0
 12 14  1  0  0  0  0
 13 42  1  0  0  0  0
 13 43  1  0  0  0  0
 14 15  2  0  0  0  0
 14 16  1  0  0  0  0
 16 20  1  0  0  0  0
 16 17  2  0  0  0  0
 17 18  1  0  0  0  0
 17 44  1  0  0  0  0
 18 19  2  0  0  0  0
 18 45  1  0  0  0  0
 19 20  1  0  0  0  0
 19 21  1  0  0  0  0
 21 26  2  0  0  0  0
 21 22  1  0  0  0  0
 22 23  2  0  0  0  0
 22 46  1  0  0  0  0
 23 24  1  0  0  0  0
 23 47  1  0  0  0  0
 24 25  2  0  0  0  0
 25 26  1  0  0  0  0
 25 48  1  0  0  0  0
 26 49  1  0  0  0  0
 27 32  2  0  0  0  0
 27 28  1  0  0  0  0
 28 29  2  0  0  0  0
 28 50  1  0  0  0  0
 29 30  1  0  0  0  0
 29 51  1  0  0  0  0
 30 35  1  0  0  0  0
 30 31  2  0  0  0  0
 31 32  1  0  0  0  0
 31 33  1  0  0  0  0
 32 52  1  0  0  0  0
 33 34  1  0  0  0  0
 34 35  1  0  0  0  0
 34 53  1  0  0  0  0
 34 54  1  0  0  0  0
M  END
$$$$
CHEMBL138949
  -OEChem-07121202283D

 55 61  0     1  0  0  0  0  0999 V2000
   -0.0165    1.3628    0.0095 C   0  0  0  0  0  0  0  0  0  0  0  0
    1.1698    2.0838    0.0021 C   0  0  0  0  0  0  0  0  0  0  0  0
    2.3862    1.4376   -0.0135 C   0  0  0  0  0  0  0  0  0  0  0  0
    2.4284    0.0458   -0.0214 C   0  0  0  0  0  0  0  0  0  0  0  0
    1.2231   -0.6777   -0.0133 C   0  0  0  0  0  0  0  0  0  0  0  0
    0.0021   -0.0041    0.0020 C   0  0  0  0  0  0  0  0  0  0  0  0
    1.2934   -2.1480   -0.0219 C   0  0  0  0  0  0  0  0  0  0  0  0
    2.5744   -2.7535   -0.0380 C   0  0  0  0  0  0  0  0  0  0  0  0
    3.6874   -1.9921   -0.0449 C   0  0  0  0  0  0  0  0  0  0  0  0
    3.6240   -0.6315   -0.0374 N   0  0  0  0  0  0  0  0  0  0  0  0
    4.9010   -2.8944   -0.0614 C   0  0  1  0  0  0  0  0  0  0  0  0
    4.4244   -4.2808   -0.0638 N   0  0  0  0  0  0  0  0  0  0  0  0
    2.9595   -4.2121   -0.0492 C   0  0  0  0  0  0  0  0  0  0  0  0
    5.1813   -5.3958   -0.0778 C   0  0  0  0  0  0  0  0  0  0  0  0
    6.3950   -5.3073   -0.0901 O   0  0  0  0  0  0  0  0  0  0  0  0
    4.5423   -6.7160   -0.0782 C   0  0  0  0  0  0  0  0  0  0  0  0
    5.1908   -7.9196   -0.0860 C   0  0  0  0  0  0  0  0  0  0  0  0
    4.2054   -8.9129   -0.0827 C   0  0  0  0  0  0  0  0  0  0  0  0
    2.9973   -8.2773   -0.0731 C   0  0  0  0  0  0  0  0  0  0  0  0
    3.2142   -6.9510   -0.0650 O   0  0  0  0  0  0  0  0  0  0  0  0
    1.6749   -8.9361   -0.0667 C   0  0  0  0  0  0  0  0  0  0  0  0
    1.5663  -10.3322   -0.0644 C   0  0  0  0  0  0  0  0  0  0  0  0
    0.3115  -10.9051   -0.0584 C   0  0  0  0  0  0  0  0  0  0  0  0
   -0.7751  -10.1568   -0.0553 N   0  0  0  0  0  0  0  0  0  0  0  0
   -0.7180   -8.8387   -0.0573 C   0  0  0  0  0  0  0  0  0  0  0  0
    0.4950   -8.1820   -0.0569 C   0  0  0  0  0  0  0  0  0  0  0  0
    5.7160   -2.6321   -1.3016 C   0  0  0  0  0  0  0  0  0  0  0  0
    5.3306   -3.1832   -2.5095 C   0  0  0  0  0  0  0  0  0  0  0  0
    6.0746   -2.9451   -3.6500 C   0  0  0  0  0  0  0  0  0  0  0  0
    7.2095   -2.1531   -3.5847 C   0  0  0  0  0  0  0  0  0  0  0  0
    7.5977   -1.5979   -2.3679 C   0  0  0  0  0  0  0  0  0  0  0  0
    6.8440   -1.8362   -1.2301 C   0  0  0  0  0  0  0  0  0  0  0  0
    8.7339   -0.8674   -2.5644 O   0  0  0  0  0  0  0  0  0  0  0  0
    9.2645   -1.3137   -3.8263 C   0  0  0  0  0  0  0  0  0  0  0  0
    8.1025   -1.7704   -4.5435 O   0  0  0  0  0  0  0  0  0  0  0  0
    0.2786   -2.8253   -0.0151 O   0  0  0  0  0  0  0  0  0  0  0  0
   -0.9613    1.8858    0.0259 H   0  0  0  0  0  0  0  0  0  0  0  0
    1.1386    3.1633    0.0082 H   0  0  0  0  0  0  0  0  0  0  0  0
    3.3032    2.0080   -0.0199 H   0  0  0  0  0  0  0  0  0  0  0  0
   -0.9242   -0.5595    0.0083 H   0  0  0  0  0  0  0  0  0  0  0  0
    5.5079   -2.7138    0.8259 H   0  0  0  0  0  0  0  0  0  0  0  0
    2.5749   -4.7034    0.8446 H   0  0  0  0  0  0  0  0  0  0  0  0
    2.5575   -4.6942   -0.9403 H   0  0  0  0  0  0  0  0  0  0  0  0
    6.2596   -8.0742   -0.0938 H   0  0  0  0  0  0  0  0  0  0  0  0
    4.3694   -9.9804   -0.0873 H   0  0  0  0  0  0  0  0  0  0  0  0
    2.4515  -10.9510   -0.0676 H   0  0  0  0  0  0  0  0  0  0  0  0
    0.2172  -11.9809   -0.0566 H   0  0  0  0  0  0  0  0  0  0  0  0
   -1.6337   -8.2660   -0.0550 H   0  0  0  0  0  0  0  0  0  0  0  0
    0.5342   -7.1027   -0.0538 H   0  0  0  0  0  0  0  0  0  0  0  0
    4.4467   -3.8015   -2.5622 H   0  0  0  0  0  0  0  0  0  0  0  0
    5.7713   -3.3769   -4.5923 H   0  0  0  0  0  0  0  0  0  0  0  0
    7.1401   -1.4033   -0.2860 H   0  0  0  0  0  0  0  0  0  0  0  0
    9.7409   -0.4881   -4.3550 H   0  0  0  0  0  0  0  0  0  0  0  0
    9.9690   -2.1321   -3.6777 H   0  0  0  0  0  0  0  0  0  0  0  0
    4.4504   -0.1236   -0.0431 H   0  0  0  0  0  0  0  0  0  0  0  0
  1  6  2  0  0  0  0
  1  2  1  0  0  0  0
  1 37  1  0  0  0  0
  2  3  2  0  0  0  0
  2 38  1  0  0  0  0
  3  4  1  0  0  0  0
  3 39  1  0  0  0  0
  4 10  1  0  0  0  0
  4  5  2  0  0  0  0
  5  6  1  0  0  0  0
  5  7  1  0  0  0  0
  6 40  1  0  0  0  0
  7  8  1  0  0  0  0
  7 36  2  0  0  0  0
  8 13  1  0  0  0  0
  8  9  2  0  0  0  0
  9 10  1  0  0  0  0
  9 11  1  0  0  0  0
 10 55  1  0  0  0  0
 11 12  1  0  0  0  0
 11 27  1  0  0  0  0
 11 41  1  0  0  0  0
 12 13  1  0  0  0  0
 12 14  1  0  0  0  0
 13 42  1  0  0  0  0
 13 43  1  0  0  0  0
 14 15  2  0  0  0  0
 14 16  1  0  0  0  0
 16 20  1  0  0  0  0
 16 17  2  0  0  0  0
 17 18  1  0  0  0  0
 17 44  1  0  0  0  0
 18 19  2  0  0  0  0
 18 45  1  0  0  0  0
 19 20  1  0  0  0  0
 19 21  1  0  0  0  0
 21 26  2  0  0  0  0
 21 22  1  0  0  0  0
 22 23  2  0  0  0  0
 22 46  1  0  0  0  0
 23 24  1  0  0  0  0
 23 47  1  0  0  0  0
 24 25  2  0  0  0  0
 25 26  1  0  0  0  0
 25 48  1  0  0  0  0
 26 49  1  0  0  0  0
 27 32  2  0  0  0  0
 27 28  1  0  0  0  0
 28 29  2  0  0  0  0
 28 50  1  0  0  0  0
 29 30  1  0  0  0  0
 29 51  1  0  0  0  0
 30 35  1  0  0  0  0
 30 31  2  0  0  0  0
 31 32  1  0  0  0  0
 31 33  1  0  0  0  0
 32 52  1  0  0  0  0
 33 34  1  0  0  0  0
 34 35  1  0  0  0  0
 34 53  1  0  0  0  0
 34 54  1  0  0  0  0
M  END
$$$$
CHEMBL209460
  -OEChem-07121202283D

 61 64  0     0  0  0  0  0  0999 V2000
   -0.0187    1.5258    0.0104 C   0  0  0  0  0  0  0  0  0  0  0  0
    0.0021   -0.0041    0.0020 C   0  0  0  0  0  0  0  0  0  0  0  0
    0.7182   -0.4975   -1.2568 C   0  0  0  0  0  0  0  0  0  0  0  0
    0.7386   -2.0043   -1.2651 C   0  0  0  0  0  0  0  0  0  0  0  0
    1.7436   -2.8145   -0.7018 C   0  0  0  0  0  0  0  0  0  0  0  0
    1.3720   -4.1454   -0.9317 C   0  0  0  0  0  0  0  0  0  0  0  0
    2.2161   -5.1792   -0.4641 C   0  0  0  0  0  0  0  0  0  0  0  0
    3.3499   -4.8377    0.1873 N   0  0  0  0  0  0  0  0  0  0  0  0
    3.6634   -3.5202    0.3839 C   0  0  0  0  0  0  0  0  0  0  0  0
    2.8907   -2.5515   -0.0436 N   0  0  0  0  0  0  0  0  0  0  0  0
    4.9096   -3.1795    1.0994 C   0  0  0  0  0  0  0  0  0  0  0  0
    5.7492   -4.1895    1.5581 C   0  0  0  0  0  0  0  0  0  0  0  0
    6.9259   -3.8587    2.2340 C   0  0  0  0  0  0  0  0  0  0  0  0
    7.2556   -2.5127    2.4469 C   0  0  0  0  0  0  0  0  0  0  0  0
    6.4234   -1.5160    1.9921 C   0  0  0  0  0  0  0  0  0  0  0  0
    5.2535   -1.8356    1.3137 C   0  0  0  0  0  0  0  0  0  0  0  0
    4.4411   -0.8489    0.8634 O   0  0  0  0  0  0  0  0  0  0  0  0
    4.8523    0.4961    1.1161 C   0  0  0  0  0  0  0  0  0  0  0  0
    3.8169    1.4631    0.5384 C   0  0  0  0  0  0  0  0  0  0  0  0
    7.8169   -4.9200    2.7216 C   0  0  0  0  0  0  0  0  0  0  0  0
    7.5309   -6.0842    2.5374 O   0  0  0  0  0  0  0  0  0  0  0  0
    9.0863   -4.5622    3.4507 C   0  0  0  0  0  0  0  0  0  0  0  0
    9.7953   -5.7911    3.8316 N   0  0  0  0  0  0  0  0  0  0  0  0
    9.0299   -6.5533    4.8289 C   0  0  0  0  0  0  0  0  0  0  0  0
    9.7741   -7.8516    5.1522 C   0  0  0  0  0  0  0  0  0  0  0  0
   11.0937   -7.5384    5.6060 O   0  0  0  0  0  0  0  0  0  0  0  0
   11.8674   -6.7969    4.6590 C   0  0  0  0  0  0  0  0  0  0  0  0
   11.1444   -5.4879    4.3308 C   0  0  0  0  0  0  0  0  0  0  0  0
    1.9279   -6.3498   -0.6438 O   0  0  0  0  0  0  0  0  0  0  0  0
    0.1849   -4.1164   -1.6093 N   0  0  0  0  0  0  0  0  0  0  0  0
   -0.1751   -2.7746   -1.7907 N   0  0  0  0  0  0  0  0  0  0  0  0
   -0.5786   -5.2824   -2.0608 C   0  0  0  0  0  0  0  0  0  0  0  0
    1.0039    1.9031    0.0027 H   0  0  0  0  0  0  0  0  0  0  0  0
   -0.5459    1.8868   -0.8726 H   0  0  0  0  0  0  0  0  0  0  0  0
   -0.5289    1.8773    0.9072 H   0  0  0  0  0  0  0  0  0  0  0  0
    0.5293   -0.3651    0.8851 H   0  0  0  0  0  0  0  0  0  0  0  0
   -1.0205   -0.3814    0.0098 H   0  0  0  0  0  0  0  0  0  0  0  0
    0.1910   -0.1364   -2.1398 H   0  0  0  0  0  0  0  0  0  0  0  0
    1.7408   -0.1202   -1.2645 H   0  0  0  0  0  0  0  0  0  0  0  0
    5.4919   -5.2253    1.3926 H   0  0  0  0  0  0  0  0  0  0  0  0
    8.1654   -2.2575    2.9699 H   0  0  0  0  0  0  0  0  0  0  0  0
    6.6824   -0.4810    2.1594 H   0  0  0  0  0  0  0  0  0  0  0  0
    4.9370    0.6542    2.1913 H   0  0  0  0  0  0  0  0  0  0  0  0
    5.8190    0.6750    0.6453 H   0  0  0  0  0  0  0  0  0  0  0  0
    3.7323    1.3049   -0.5367 H   0  0  0  0  0  0  0  0  0  0  0  0
    2.8503    1.2842    1.0092 H   0  0  0  0  0  0  0  0  0  0  0  0
    4.1306    2.4890    0.7312 H   0  0  0  0  0  0  0  0  0  0  0  0
    9.7226   -3.9626    2.7997 H   0  0  0  0  0  0  0  0  0  0  0  0
    8.8422   -3.9910    4.3464 H   0  0  0  0  0  0  0  0  0  0  0  0
    8.9225   -5.9596    5.7367 H   0  0  0  0  0  0  0  0  0  0  0  0
    8.0439   -6.7890    4.4286 H   0  0  0  0  0  0  0  0  0  0  0  0
    9.2396   -8.3928    5.9328 H   0  0  0  0  0  0  0  0  0  0  0  0
    9.8344   -8.4693    4.2561 H   0  0  0  0  0  0  0  0  0  0  0  0
   12.8468   -6.5753    5.0831 H   0  0  0  0  0  0  0  0  0  0  0  0
   11.9886   -7.3839    3.7487 H   0  0  0  0  0  0  0  0  0  0  0  0
   11.7019   -4.9459    3.5669 H   0  0  0  0  0  0  0  0  0  0  0  0
   11.0708   -4.8772    5.2306 H   0  0  0  0  0  0  0  0  0  0  0  0
   -1.2776   -5.5833   -1.2805 H   0  0  0  0  0  0  0  0  0  0  0  0
   -1.1313   -5.0269   -2.9649 H   0  0  0  0  0  0  0  0  0  0  0  0
    0.1051   -6.1044   -2.2730 H   0  0  0  0  0  0  0  0  0  0  0  0
    3.9442   -5.5297    0.5174 H   0  0  0  0  0  0  0  0  0  0  0  0
  1  2  1  0  0  0  0
  1 33  1  0  0  0  0
  1 34  1  0  0  0  0
  1 35  1  0  0  0  0
  2  3  1  0  0  0  0
  2 36  1  0  0  0  0
  2 37  1  0  0  0  0
  3  4  1  0  0  0  0
  3 38  1  0  0  0  0
  3 39  1  0  0  0  0
  4 31  2  0  0  0  0
  4  5  1  0  0  0  0
  5 10  1  0  0  0  0
  5  6  2  0  0  0  0
  6  7  1  0  0  0  0
  6 30  1  0  0  0  0
  7  8  1  0  0  0  0
  7 29  2  0  0  0  0
  8  9  1  0  0  0  0
  8 61  1  0  0  0  0
  9 10  2  0  0  0  0
  9 11  1  0  0  0  0
 11 16  2  0  0  0  0
 11 12  1  0  0  0  0
 12 13  2  0  0  0  0
 12 40  1  0  0  0  0
 13 14  1  0  0  0  0
 13 20  1  0  0  0  0
 14 15  2  0  0  0  0
 14 41  1  0  0  0  0
 15 16  1  0  0  0  0
 15 42  1  0  0  0  0
 16 17  1  0  0  0  0
 17 18  1  0  0  0  0
 18 19  1  0  0  0  0
 18 43  1  0  0  0  0
 18 44  1  0  0  0  0
 19 45  1  0  0  0  0
 19 46  1  0  0  0  0
 19 47  1  0  0  0  0
 20 21  2  0  0  0  0
 20 22  1  0  0  0  0
 22 23  1  0  0  0  0
 22 48  1  0  0  0  0
 22 49  1  0  0  0  0
 23 28  1  0  0  0  0
 23 24  1  0  0  0  0
 24 25  1  0  0  0  0
 24 50  1  0  0  0  0
 24 51  1  0  0  0  0
 25 26  1  0  0  0  0
 25 52  1  0  0  0  0
 25 53  1  0  0  0  0
 26 27  1  0  0  0  0
 27 28  1  0  0  0  0
 27 54  1  0  0  0  0
 27 55  1  0  0  0  0
 28 56  1  0  0  0  0
 28 57  1  0  0  0  0
 30 31  1  0  0  0  0
 30 32  1  0  0  0  0
 32 58  1  0  0  0  0
 32 59  1  0  0  0  0
 32 60  1  0  0  0  0
M  END
$$$$
CHEMBL209460
  -OEChem-07121202283D

 61 64  0     0  0  0  0  0  0999 V2000
   -0.0187    1.5258    0.0104 C   0  0  0  0  0  0  0  0  0  0  0  0
    0.0021   -0.0041    0.0020 C   0  0  0  0  0  0  0  0  0  0  0  0
    0.7182   -0.4975   -1.2568 C   0  0  0  0  0  0  0  0  0  0  0  0
    0.7386   -2.0043   -1.2651 C   0  0  0  0  0  0  0  0  0  0  0  0
    1.7371   -2.8090   -0.7054 C   0  0  0  0  0  0  0  0  0  0  0  0
    1.3735   -4.1351   -0.9297 C   0  0  0  0  0  0  0  0  0  0  0  0
    2.2600   -5.1909   -0.4371 C   0  0  0  0  0  0  0  0  0  0  0  0
    3.3837   -4.8396    0.2086 N   0  0  0  0  0  0  0  0  0  0  0  0
    3.6973   -3.5767    0.4036 C   0  0  0  0  0  0  0  0  0  0  0  0
    2.9156   -2.5524   -0.0300 N   0  0  0  0  0  0  0  0  0  0  0  0
    4.9473   -3.2596    1.1210 C   0  0  0  0  0  0  0  0  0  0  0  0
    5.3047   -1.9336    1.3484 C   0  0  0  0  0  0  0  0  0  0  0  0
    6.4889   -1.6426    2.0285 C   0  0  0  0  0  0  0  0  0  0  0  0
    7.3119   -2.6850    2.4788 C   0  0  0  0  0  0  0  0  0  0  0  0
    6.9566   -3.9944    2.2528 C   0  0  0  0  0  0  0  0  0  0  0  0
    5.7772   -4.2946    1.5815 C   0  0  0  0  0  0  0  0  0  0  0  0
    5.4305   -5.5864    1.3668 O   0  0  0  0  0  0  0  0  0  0  0  0
    6.3211   -6.5881    1.8624 C   0  0  0  0  0  0  0  0  0  0  0  0
    5.7666   -7.9742    1.5278 C   0  0  0  0  0  0  0  0  0  0  0  0
    6.8726   -0.2455    2.2716 C   0  0  0  0  0  0  0  0  0  0  0  0
    6.1606    0.6556    1.8816 O   0  0  0  0  0  0  0  0  0  0  0  0
    8.1509    0.0679    3.0057 C   0  0  0  0  0  0  0  0  0  0  0  0
    8.3057    1.5243    3.1194 N   0  0  0  0  0  0  0  0  0  0  0  0
    8.5092    2.1373    1.7987 C   0  0  0  0  0  0  0  0  0  0  0  0
    8.6058    3.6570    1.9568 C   0  0  0  0  0  0  0  0  0  0  0  0
    9.6628    3.9703    2.8678 O   0  0  0  0  0  0  0  0  0  0  0  0
    9.4964    3.3899    4.1643 C   0  0  0  0  0  0  0  0  0  0  0  0
    9.4089    1.8675    4.0285 C   0  0  0  0  0  0  0  0  0  0  0  0
    1.9830   -6.3672   -0.6096 O   0  0  0  0  0  0  0  0  0  0  0  0
    0.1883   -4.1166   -1.6059 N   0  0  0  0  0  0  0  0  0  0  0  0
   -0.1769   -2.7759   -1.7917 N   0  0  0  0  0  0  0  0  0  0  0  0
   -0.5692   -5.2881   -2.0530 C   0  0  0  0  0  0  0  0  0  0  0  0
    1.0039    1.9031    0.0027 H   0  0  0  0  0  0  0  0  0  0  0  0
   -0.5459    1.8868   -0.8726 H   0  0  0  0  0  0  0  0  0  0  0  0
   -0.5289    1.8773    0.9072 H   0  0  0  0  0  0  0  0  0  0  0  0
    0.5293   -0.3651    0.8851 H   0  0  0  0  0  0  0  0  0  0  0  0
   -1.0205   -0.3814    0.0098 H   0  0  0  0  0  0  0  0  0  0  0  0
    0.1910   -0.1364   -2.1398 H   0  0  0  0  0  0  0  0  0  0  0  0
    1.7408   -0.1202   -1.2645 H   0  0  0  0  0  0  0  0  0  0  0  0
    4.6688   -1.1333    1.0000 H   0  0  0  0  0  0  0  0  0  0  0  0
    8.2279   -2.4588    3.0044 H   0  0  0  0  0  0  0  0  0  0  0  0
    7.5947   -4.7927    2.6021 H   0  0  0  0  0  0  0  0  0  0  0  0
    7.2996   -6.4663    1.3979 H   0  0  0  0  0  0  0  0  0  0  0  0
    6.4169   -6.4863    2.9434 H   0  0  0  0  0  0  0  0  0  0  0  0
    4.7881   -8.0960    1.9924 H   0  0  0  0  0  0  0  0  0  0  0  0
    5.6708   -8.0760    0.4468 H   0  0  0  0  0  0  0  0  0  0  0  0
    6.4459   -8.7383    1.9058 H   0  0  0  0  0  0  0  0  0  0  0  0
    8.1151   -0.3725    4.0021 H   0  0  0  0  0  0  0  0  0  0  0  0
    8.9964   -0.3455    2.4558 H   0  0  0  0  0  0  0  0  0  0  0  0
    9.4318    1.7577    1.3596 H   0  0  0  0  0  0  0  0  0  0  0  0
    7.6685    1.8915    1.1500 H   0  0  0  0  0  0  0  0  0  0  0  0
    8.8137    4.1112    0.9880 H   0  0  0  0  0  0  0  0  0  0  0  0
    7.6636    4.0430    2.3459 H   0  0  0  0  0  0  0  0  0  0  0  0
   10.3484    3.6510    4.7920 H   0  0  0  0  0  0  0  0  0  0  0  0
    8.5802    3.7682    4.6175 H   0  0  0  0  0  0  0  0  0  0  0  0
    9.2249    1.4248    5.0075 H   0  0  0  0  0  0  0  0  0  0  0  0
   10.3459    1.4836    3.6250 H   0  0  0  0  0  0  0  0  0  0  0  0
   -1.2665   -5.5899   -1.2714 H   0  0  0  0  0  0  0  0  0  0  0  0
   -1.1235   -5.0386   -2.9578 H   0  0  0  0  0  0  0  0  0  0  0  0
    0.1186   -6.1073   -2.2625 H   0  0  0  0  0  0  0  0  0  0  0  0
    3.1862   -1.6358    0.1360 H   0  0  0  0  0  0  0  0  0  0  0  0
  1  2  1  0  0  0  0
  1 33  1  0  0  0  0
  1 34  1  0  0  0  0
  1 35  1  0  0  0  0
  2  3  1  0  0  0  0
  2 36  1  0  0  0  0
  2 37  1  0  0  0  0
  3  4  1  0  0  0  0
  3 38  1  0  0  0  0
  3 39  1  0  0  0  0
  4 31  2  0  0  0  0
  4  5  1  0  0  0  0
  5 10  1  0  0  0  0
  5  6  2  0  0  0  0
  6  7  1  0  0  0  0
  6 30  1  0  0  0  0
  7  8  1  0  0  0  0
  7 29  2  0  0  0  0
  8  9  2  0  0  0  0
  9 10  1  0  0  0  0
  9 11  1  0  0  0  0
 10 61  1  0  0  0  0
 11 16  2  0  0  0  0
 11 12  1  0  0  0  0
 12 13  2  0  0  0  0
 12 40  1  0  0  0  0
 13 14  1  0  0  0  0
 13 20  1  0  0  0  0
 14 15  2  0  0  0  0
 14 41  1  0  0  0  0
 15 16  1  0  0  0  0
 15 42  1  0  0  0  0
 16 17  1  0  0  0  0
 17 18  1  0  0  0  0
 18 19  1  0  0  0  0
 18 43  1  0  0  0  0
 18 44  1  0  0  0  0
 19 45  1  0  0  0  0
 19 46  1  0  0  0  0
 19 47  1  0  0  0  0
 20 21  2  0  0  0  0
 20 22  1  0  0  0  0
 22 23  1  0  0  0  0
 22 48  1  0  0  0  0
 22 49  1  0  0  0  0
 23 28  1  0  0  0  0
 23 24  1  0  0  0  0
 24 25  1  0  0  0  0
 24 50  1  0  0  0  0
 24 51  1  0  0  0  0
 25 26  1  0  0  0  0
 25 52  1  0  0  0  0
 25 53  1  0  0  0  0
 26 27  1  0  0  0  0
 27 28  1  0  0  0  0
 27 54  1  0  0  0  0
 27 55  1  0  0  0  0
 28 56  1  0  0  0  0
 28 57  1  0  0  0  0
 30 31  1  0  0  0  0
 30 32  1  0  0  0  0
 32 58  1  0  0  0  0
 32 59  1  0  0  0  0
 32 60  1  0  0  0  0
M  END
$$$$
CHEMBL209460
  -OEChem-07121202283D

 60 63  0     0  0  0  0  0  0999 V2000
   -0.0187    1.5258    0.0104 C   0  0  0  0  0  0  0  0  0  0  0  0
    0.0021   -0.0041    0.0020 C   0  0  0  0  0  0  0  0  0  0  0  0
    0.7182   -0.4975   -1.2568 C   0  0  0  0  0  0  0  0  0  0  0  0
    0.7386   -2.0043   -1.2651 C   0  0  0  0  0  0  0  0  0  0  0  0
    1.7462   -2.8166   -0.7003 C   0  0  0  0  0  0  0  0  0  0  0  0
    1.3706   -4.1533   -0.9326 C   0  0  0  0  0  0  0  0  0  0  0  0
    2.2089   -5.1744   -0.4673 C   0  0  0  0  0  0  0  0  0  0  0  0
    3.3207   -4.8424    0.1721 N   0  0  0  0  0  0  0  0  0  0  0  0
    3.6450   -3.5680    0.3742 C   0  0  0  0  0  0  0  0  0  0  0  0
    2.8863   -2.5711   -0.0459 N   0  0  0  0  0  0  0  0  0  0  0  0
    4.9012   -3.2555    1.0965 C   0  0  0  0  0  0  0  0  0  0  0  0
    5.2615   -1.9343    1.3264 C   0  0  0  0  0  0  0  0  0  0  0  0
    6.4474   -1.6473    2.0080 C   0  0  0  0  0  0  0  0  0  0  0  0
    7.2665   -2.6927    2.4558 C   0  0  0  0  0  0  0  0  0  0  0  0
    6.9057   -4.0004    2.2258 C   0  0  0  0  0  0  0  0  0  0  0  0
    5.7251   -4.2930    1.5538 C   0  0  0  0  0  0  0  0  0  0  0  0
    5.3724   -5.5836    1.3358 O   0  0  0  0  0  0  0  0  0  0  0  0
    6.2584   -6.5905    1.8290 C   0  0  0  0  0  0  0  0  0  0  0  0
    5.6976   -7.9733    1.4910 C   0  0  0  0  0  0  0  0  0  0  0  0
    6.8350   -0.2520    2.2543 C   0  0  0  0  0  0  0  0  0  0  0  0
    6.1256    0.6520    1.8661 O   0  0  0  0  0  0  0  0  0  0  0  0
    8.1139    0.0562    2.9894 C   0  0  0  0  0  0  0  0  0  0  0  0
    8.2728    1.5119    3.1064 N   0  0  0  0  0  0  0  0  0  0  0  0
    8.4785    2.1271    1.7871 C   0  0  0  0  0  0  0  0  0  0  0  0
    8.5793    3.6463    1.9485 C   0  0  0  0  0  0  0  0  0  0  0  0
    9.6369    3.9546    2.8605 O   0  0  0  0  0  0  0  0  0  0  0  0
    9.4685    3.3718    4.1556 C   0  0  0  0  0  0  0  0  0  0  0  0
    9.3767    1.8499    4.0165 C   0  0  0  0  0  0  0  0  0  0  0  0
    1.8890   -6.4756   -0.6668 O   0  5  0  0  0  0  0  0  0  0  0  0
    0.1819   -4.1166   -1.6111 N   0  0  0  0  0  0  0  0  0  0  0  0
   -0.1735   -2.7733   -1.7897 N   0  0  0  0  0  0  0  0  0  0  0  0
   -0.5863   -5.2783   -2.0658 C   0  0  0  0  0  0  0  0  0  0  0  0
    1.0039    1.9031    0.0027 H   0  0  0  0  0  0  0  0  0  0  0  0
   -0.5459    1.8868   -0.8726 H   0  0  0  0  0  0  0  0  0  0  0  0
   -0.5289    1.8773    0.9072 H   0  0  0  0  0  0  0  0  0  0  0  0
    0.5293   -0.3651    0.8851 H   0  0  0  0  0  0  0  0  0  0  0  0
   -1.0205   -0.3814    0.0098 H   0  0  0  0  0  0  0  0  0  0  0  0
    0.1910   -0.1364   -2.1398 H   0  0  0  0  0  0  0  0  0  0  0  0
    1.7408   -0.1202   -1.2645 H   0  0  0  0  0  0  0  0  0  0  0  0
    4.6278   -1.1315    0.9795 H   0  0  0  0  0  0  0  0  0  0  0  0
    8.1832   -2.4713    2.9822 H   0  0  0  0  0  0  0  0  0  0  0  0
    7.5404   -4.8025    2.5725 H   0  0  0  0  0  0  0  0  0  0  0  0
    7.2374   -6.4720    1.3648 H   0  0  0  0  0  0  0  0  0  0  0  0
    6.3546   -6.4918    2.9103 H   0  0  0  0  0  0  0  0  0  0  0  0
    5.6014   -8.0719    0.4097 H   0  0  0  0  0  0  0  0  0  0  0  0
    6.3734   -8.7413    1.8672 H   0  0  0  0  0  0  0  0  0  0  0  0
    4.7185   -8.0917    1.9552 H   0  0  0  0  0  0  0  0  0  0  0  0
    8.0766   -0.3863    3.9848 H   0  0  0  0  0  0  0  0  0  0  0  0
    8.9584   -0.3584    2.4389 H   0  0  0  0  0  0  0  0  0  0  0  0
    9.4001    1.7459    1.3473 H   0  0  0  0  0  0  0  0  0  0  0  0
    7.6372    1.8852    1.1375 H   0  0  0  0  0  0  0  0  0  0  0  0
    8.7887    4.1020    0.9808 H   0  0  0  0  0  0  0  0  0  0  0  0
    7.6381    4.0341    2.3382 H   0  0  0  0  0  0  0  0  0  0  0  0
   10.3211    3.6291    4.7841 H   0  0  0  0  0  0  0  0  0  0  0  0
    8.5532    3.7517    4.6094 H   0  0  0  0  0  0  0  0  0  0  0  0
    9.1912    1.4056    4.9944 H   0  0  0  0  0  0  0  0  0  0  0  0
   10.3127    1.4643    3.6124 H   0  0  0  0  0  0  0  0  0  0  0  0
   -1.2864   -5.5787   -1.2862 H   0  0  0  0  0  0  0  0  0  0  0  0
   -1.1380   -5.0182   -2.9691 H   0  0  0  0  0  0  0  0  0  0  0  0
    0.0941   -6.1025   -2.2802 H   0  0  0  0  0  0  0  0  0  0  0  0
  1  2  1  0  0  0  0
  1 33  1  0  0  0  0
  1 34  1  0  0  0  0
  1 35  1  0  0  0  0
  2  3  1  0  0  0  0
  2 36  1  0  0  0  0
  2 37  1  0  0  0  0
  3  4  1  0  0  0  0
  3 38  1  0  0  0  0
  3 39  1  0  0  0  0
  4 31  2  0  0  0  0
  4  5  1  0  0  0  0
  5 10  2  0  0  0  0
  5  6  1  0  0  0  0
  6  7  2  0  0  0  0
  6 30  1  0  0  0  0
  7  8  1  0  0  0  0
  7 29  1  0  0  0  0
  8  9  2  0  0  0  0
  9 10  1  0  0  0  0
  9 11  1  0  0  0  0
 11 16  2  0  0  0  0
 11 12  1  0  0  0  0
 12 13  2  0  0  0  0
 12 40  1  0  0  0  0
 13 14  1  0  0  0  0
 13 20  1  0  0  0  0
 14 15  2  0  0  0  0
 14 41  1  0  0  0  0
 15 16  1  0  0  0  0
 15 42  1  0  0  0  0
 16 17  1  0  0  0  0
 17 18  1  0  0  0  0
 18 19  1  0  0  0  0
 18 43  1  0  0  0  0
 18 44  1  0  0  0  0
 19 45  1  0  0  0  0
 19 46  1  0  0  0  0
 19 47  1  0  0  0  0
 20 21  2  0  0  0  0
 20 22  1  0  0  0  0
 22 23  1  0  0  0  0
 22 48  1  0  0  0  0
 22 49  1  0  0  0  0
 23 28  1  0  0  0  0
 23 24  1  0  0  0  0
 24 25  1  0  0  0  0
 24 50  1  0  0  0  0
 24 51  1  0  0  0  0
 25 26  1  0  0  0  0
 25 52  1  0  0  0  0
 25 53  1  0  0  0  0
 26 27  1  0  0  0  0
 27 28  1  0  0  0  0
 27 54  1  0  0  0  0
 27 55  1  0  0  0  0
 28 56  1  0  0  0  0
 28 57  1  0  0  0  0
 30 31  1  0  0  0  0
 30 32  1  0  0  0  0
 32 58  1  0  0  0  0
 32 59  1  0  0  0  0
 32 60  1  0  0  0  0
M  CHG  1  29  -1
M  END
$$$$
CHEMBL519357
  -OEChem-07121202283D

 62 66  0     1  0  0  0  0  0999 V2000
    0.3938    1.6926    0.6799 C   0  0  0  0  0  0  0  0  0  0  0  0
    0.4663    0.1643    0.6657 C   0  0  0  0  0  0  0  0  0  0  0  0
   -0.8764   -0.3863    0.4650 N   0  0  0  0  0  0  0  0  0  0  0  0
   -1.6813   -0.6608    1.5354 C   0  0  0  0  0  0  0  0  0  0  0  0
   -1.3740   -0.3234    2.6588 O   0  0  0  0  0  0  0  0  0  0  0  0
   -2.9458   -1.3876    1.2666 C   0  0  2  0  0  0  0  0  0  0  0  0
   -3.6300   -0.6924    0.0414 C   0  0  2  0  0  0  0  0  0  0  0  0
   -4.9396   -1.3000    0.1046 N   0  0  0  0  0  0  0  0  0  0  0  0
   -5.1596   -1.6233    1.3648 C   0  0  0  0  0  0  0  0  0  0  0  0
   -4.0736   -1.3102    2.1860 N   0  0  0  0  0  0  0  0  0  0  0  0
   -4.0696   -0.9853    3.6145 C   0  0  0  0  0  0  0  0  0  0  0  0
   -3.9507   -2.2546    4.4180 C   0  0  0  0  0  0  0  0  0  0  0  0
   -5.0894   -2.8851    4.8849 C   0  0  0  0  0  0  0  0  0  0  0  0
   -4.9836   -4.0486    5.6222 C   0  0  0  0  0  0  0  0  0  0  0  0
   -3.7337   -4.5851    5.8940 C   0  0  0  0  0  0  0  0  0  0  0  0
   -2.5918   -3.9510    5.4241 C   0  0  0  0  0  0  0  0  0  0  0  0
   -2.7037   -2.7896    4.6823 C   0  0  0  0  0  0  0  0  0  0  0  0
   -1.0255   -4.6189    5.7619 Cl  0  0  0  0  0  0  0  0  0  0  0  0
   -3.6272   -5.7296    6.6196 O   0  0  0  0  0  0  0  0  0  0  0  0
   -4.8443   -6.3272    7.0710 C   0  0  0  0  0  0  0  0  0  0  0  0
   -6.3022   -2.1906    1.8093 O   0  0  0  0  0  0  0  0  0  0  0  0
   -7.3193   -2.4473    0.8389 C   0  0  0  0  0  0  0  0  0  0  0  0
   -2.7116   -0.8956   -1.0449 N   0  0  0  0  0  0  0  0  0  0  0  0
   -1.3559   -0.6336   -0.8226 C   0  0  0  0  0  0  0  0  0  0  0  0
   -0.6742   -0.6293   -1.9165 N   0  0  0  0  0  0  0  0  0  0  0  0
   -1.5397   -0.9290   -3.0687 C   0  0  1  0  0  0  0  0  0  0  0  0
   -1.1238   -1.7452   -3.6593 H   0  0  0  0  0  0  0  0  0  0  0  0
   -2.8706   -1.3667   -2.4139 C   0  0  0  0  0  0  0  0  0  0  0  0
   -1.7337    0.3168   -3.9354 C   0  0  0  0  0  0  0  0  0  0  0  0
   -0.4202    0.6977   -4.5686 C   0  0  0  0  0  0  0  0  0  0  0  0
    0.4372    1.5626   -3.9146 C   0  0  0  0  0  0  0  0  0  0  0  0
    1.6420    1.9120   -4.4953 C   0  0  0  0  0  0  0  0  0  0  0  0
    1.9895    1.3962   -5.7299 C   0  0  0  0  0  0  0  0  0  0  0  0
    1.1325    0.5306   -6.3834 C   0  0  0  0  0  0  0  0  0  0  0  0
   -0.0704    0.1779   -5.8007 C   0  0  0  0  0  0  0  0  0  0  0  0
    1.3928    2.1023    0.8293 H   0  0  0  0  0  0  0  0  0  0  0  0
   -0.0056    2.0463   -0.2706 H   0  0  0  0  0  0  0  0  0  0  0  0
   -0.2573    2.0179    1.4913 H   0  0  0  0  0  0  0  0  0  0  0  0
    1.1174   -0.1610   -0.1457 H   0  0  0  0  0  0  0  0  0  0  0  0
    0.8657   -0.1894    1.6162 H   0  0  0  0  0  0  0  0  0  0  0  0
   -2.7302   -2.4302    1.0329 H   0  0  0  0  0  0  0  0  0  0  0  0
   -3.7155    0.3772    0.2330 H   0  0  0  0  0  0  0  0  0  0  0  0
   -3.2243   -0.3341    3.8366 H   0  0  0  0  0  0  0  0  0  0  0  0
   -4.9981   -0.4766    3.8740 H   0  0  0  0  0  0  0  0  0  0  0  0
   -6.0625   -2.4673    4.6732 H   0  0  0  0  0  0  0  0  0  0  0  0
   -5.8735   -4.5399    5.9870 H   0  0  0  0  0  0  0  0  0  0  0  0
   -1.8160   -2.2977    4.3128 H   0  0  0  0  0  0  0  0  0  0  0  0
   -4.6174   -7.2312    7.6361 H   0  0  0  0  0  0  0  0  0  0  0  0
   -5.3792   -5.6242    7.7096 H   0  0  0  0  0  0  0  0  0  0  0  0
   -5.4645   -6.5819    6.2116 H   0  0  0  0  0  0  0  0  0  0  0  0
   -8.1807   -2.9029    1.3273 H   0  0  0  0  0  0  0  0  0  0  0  0
   -7.6204   -1.5098    0.3715 H   0  0  0  0  0  0  0  0  0  0  0  0
   -6.9326   -3.1250    0.0778 H   0  0  0  0  0  0  0  0  0  0  0  0
   -2.9893   -2.4499   -2.4397 H   0  0  0  0  0  0  0  0  0  0  0  0
   -3.7122   -0.8719   -2.8987 H   0  0  0  0  0  0  0  0  0  0  0  0
   -2.4655    0.1065   -4.7154 H   0  0  0  0  0  0  0  0  0  0  0  0
   -2.0900    1.1392   -3.3151 H   0  0  0  0  0  0  0  0  0  0  0  0
    0.1657    1.9655   -2.9501 H   0  0  0  0  0  0  0  0  0  0  0  0
    2.3116    2.5882   -3.9847 H   0  0  0  0  0  0  0  0  0  0  0  0
    2.9305    1.6697   -6.1839 H   0  0  0  0  0  0  0  0  0  0  0  0
    1.4039    0.1279   -7.3481 H   0  0  0  0  0  0  0  0  0  0  0  0
   -0.7383   -0.5013   -6.3097 H   0  0  0  0  0  0  0  0  0  0  0  0
  1  2  1  0  0  0  0
  1 36  1  0  0  0  0
  1 37  1  0  0  0  0
  1 38  1  0  0  0  0
  2  3  1  0  0  0  0
  2 39  1  0  0  0  0
  2 40  1  0  0  0  0
  3 24  1  0  0  0  0
  3  4  1  0  0  0  0
  4  5  2  0  0  0  0
  4  6  1  0  0  0  0
  6 10  1  0  0  0  0
  6  7  1  0  0  0  0
  6 41  1  0  0  0  0
  7  8  1  0  0  0  0
  7 23  1  0  0  0  0
  7 42  1  0  0  0  0
  8  9  2  0  0  0  0
  9 10  1  0  0  0  0
  9 21  1  0  0  0  0
 10 11  1  0  0  0  0
 11 12  1  0  0  0  0
 11 43  1  0  0  0  0
 11 44  1  0  0  0  0
 12 17  2  0  0  0  0
 12 13  1  0  0  0  0
 13 14  2  0  0  0  0
 13 45  1  0  0  0  0
 14 15  1  0  0  0  0
 14 46  1  0  0  0  0
 15 16  2  0  0  0  0
 15 19  1  0  0  0  0
 16 17  1  0  0  0  0
 16 18  1  0  0  0  0
 17 47  1  0  0  0  0
 19 20  1  0  0  0  0
 20 48  1  0  0  0  0
 20 49  1  0  0  0  0
 20 50  1  0  0  0  0
 21 22  1  0  0  0  0
 22 51  1  0  0  0  0
 22 52  1  0  0  0  0
 22 53  1  0  0  0  0
 23 28  1  0  0  0  0
 23 24  1  0  0  0  0
 24 25  2  0  0  0  0
 25 26  1  0  0  0  0
 26 27  1  0  0  0  0
 26 28  1  0  0  0  0
 26 29  1  0  0  0  0
 28 54  1  0  0  0  0
 28 55  1  0  0  0  0
 29 30  1  0  0  0  0
 29 56  1  0  0  0  0
 29 57  1  0  0  0  0
 30 35  2  0  0  0  0
 30 31  1  0  0  0  0
 31 32  2  0  0  0  0
 31 58  1  0  0  0  0
 32 33  1  0  0  0  0
 32 59  1  0  0  0  0
 33 34  2  0  0  0  0
 33 60  1  0  0  0  0
 34 35  1  0  0  0  0
 34 61  1  0  0  0  0
 35 62  1  0  0  0  0
M  END
$$$$
CHEMBL519357
  -OEChem-07121202283D

 62 66  0     1  0  0  0  0  0999 V2000
    0.2973    1.2441    0.2418 C   0  0  0  0  0  0  0  0  0  0  0  0
    0.3513   -0.2758    0.4090 C   0  0  0  0  0  0  0  0  0  0  0  0
   -1.0056   -0.8235    0.3368 N   0  0  0  0  0  0  0  0  0  0  0  0
   -1.7494   -0.9519    1.4426 C   0  0  0  0  0  0  0  0  0  0  0  0
   -1.3000   -0.4923    2.4707 O   0  0  0  0  0  0  0  0  0  0  0  0
   -3.0848   -1.6136    1.5163 C   0  0  2  0  0  0  0  0  0  0  0  0
   -3.7663   -1.7839    0.1520 C   0  0  1  0  0  0  0  0  0  0  0  0
   -4.6656   -0.6227    0.0713 N   0  0  0  0  0  0  0  0  0  0  0  0
   -4.7857   -0.0960    1.2483 C   0  0  0  0  0  0  0  0  0  0  0  0
   -4.0303   -0.7098    2.2124 N   0  0  0  0  0  0  0  0  0  0  0  0
   -4.1377   -0.5105    3.6598 C   0  0  0  0  0  0  0  0  0  0  0  0
   -5.1810   -1.4430    4.2192 C   0  0  0  0  0  0  0  0  0  0  0  0
   -6.4836   -1.0065    4.3767 C   0  0  0  0  0  0  0  0  0  0  0  0
   -7.4422   -1.8589    4.8897 C   0  0  0  0  0  0  0  0  0  0  0  0
   -7.0976   -3.1542    5.2466 C   0  0  0  0  0  0  0  0  0  0  0  0
   -5.7896   -3.5907    5.0873 C   0  0  0  0  0  0  0  0  0  0  0  0
   -4.8353   -2.7352    4.5687 C   0  0  0  0  0  0  0  0  0  0  0  0
   -5.3538   -5.2110    5.5327 Cl  0  0  0  0  0  0  0  0  0  0  0  0
   -8.0390   -3.9944    5.7520 O   0  0  0  0  0  0  0  0  0  0  0  0
   -9.3641   -3.4772    5.8885 C   0  0  0  0  0  0  0  0  0  0  0  0
   -5.5842    0.9636    1.5026 O   0  0  0  0  0  0  0  0  0  0  0  0
   -6.3163    1.5035    0.4005 C   0  0  0  0  0  0  0  0  0  0  0  0
   -2.8079   -1.7756   -0.9408 N   0  0  0  0  0  0  0  0  0  0  0  0
   -1.5482   -1.2149   -0.8829 C   0  0  0  0  0  0  0  0  0  0  0  0
   -0.9918   -1.0846   -2.0423 N   0  0  0  0  0  0  0  0  0  0  0  0
   -1.8702   -1.6302   -3.0895 C   0  0  1  0  0  0  0  0  0  0  0  0
   -1.3287   -2.3411   -3.7137 H   0  0  0  0  0  0  0  0  0  0  0  0
   -2.9756   -2.3567   -2.2822 C   0  0  0  0  0  0  0  0  0  0  0  0
   -2.4574   -0.5038   -3.9424 C   0  0  0  0  0  0  0  0  0  0  0  0
   -1.3534    0.1655   -4.7197 C   0  0  0  0  0  0  0  0  0  0  0  0
   -0.6754    1.2388   -4.1726 C   0  0  0  0  0  0  0  0  0  0  0  0
    0.3372    1.8527   -4.8856 C   0  0  0  0  0  0  0  0  0  0  0  0
    0.6723    1.3931   -6.1455 C   0  0  0  0  0  0  0  0  0  0  0  0
   -0.0051    0.3192   -6.6923 C   0  0  0  0  0  0  0  0  0  0  0  0
   -1.0149   -0.2974   -5.9775 C   0  0  0  0  0  0  0  0  0  0  0  0
    1.3068    1.6516    0.2955 H   0  0  0  0  0  0  0  0  0  0  0  0
   -0.1419    1.4878   -0.7256 H   0  0  0  0  0  0  0  0  0  0  0  0
   -0.3115    1.6757    1.0363 H   0  0  0  0  0  0  0  0  0  0  0  0
    0.9601   -0.7073   -0.3855 H   0  0  0  0  0  0  0  0  0  0  0  0
    0.7905   -0.5195    1.3764 H   0  0  0  0  0  0  0  0  0  0  0  0
   -3.0092   -2.5658    2.0413 H   0  0  0  0  0  0  0  0  0  0  0  0
   -4.3477   -2.7058    0.1396 H   0  0  0  0  0  0  0  0  0  0  0  0
   -3.1756   -0.7191    4.1277 H   0  0  0  0  0  0  0  0  0  0  0  0
   -4.4251    0.5209    3.8643 H   0  0  0  0  0  0  0  0  0  0  0  0
   -6.7518    0.0021    4.0988 H   0  0  0  0  0  0  0  0  0  0  0  0
   -8.4591   -1.5168    5.0130 H   0  0  0  0  0  0  0  0  0  0  0  0
   -3.8183   -3.0751    4.4405 H   0  0  0  0  0  0  0  0  0  0  0  0
  -10.0143   -4.2482    6.3019 H   0  0  0  0  0  0  0  0  0  0  0  0
   -9.3510   -2.6162    6.5568 H   0  0  0  0  0  0  0  0  0  0  0  0
   -9.7378   -3.1726    4.9109 H   0  0  0  0  0  0  0  0  0  0  0  0
   -6.9160    2.3476    0.7412 H   0  0  0  0  0  0  0  0  0  0  0  0
   -5.6205    1.8390   -0.3685 H   0  0  0  0  0  0  0  0  0  0  0  0
   -6.9710    0.7357   -0.0118 H   0  0  0  0  0  0  0  0  0  0  0  0
   -2.8107   -3.4339   -2.2619 H   0  0  0  0  0  0  0  0  0  0  0  0
   -3.9598   -2.1211   -2.6869 H   0  0  0  0  0  0  0  0  0  0  0  0
   -3.1906   -0.9170   -4.6351 H   0  0  0  0  0  0  0  0  0  0  0  0
   -2.9411    0.2277   -3.2950 H   0  0  0  0  0  0  0  0  0  0  0  0
   -0.9372    1.5978   -3.1882 H   0  0  0  0  0  0  0  0  0  0  0  0
    0.8665    2.6917   -4.4585 H   0  0  0  0  0  0  0  0  0  0  0  0
    1.4630    1.8732   -6.7029 H   0  0  0  0  0  0  0  0  0  0  0  0
    0.2564   -0.0396   -7.6768 H   0  0  0  0  0  0  0  0  0  0  0  0
   -1.5416   -1.1388   -6.4031 H   0  0  0  0  0  0  0  0  0  0  0  0
  1  2  1  0  0  0  0
  1 36  1  0  0  0  0
  1 37  1  0  0  0  0
  1 38  1  0  0  0  0
  2  3  1  0  0  0  0
  2 39  1  0  0  0  0
  2 40  1  0  0  0  0
  3 24  1  0  0  0  0
  3  4  1  0  0  0  0
  4  5  2  0  0  0  0
  4  6  1  0  0  0  0
  6 10  1  0  0  0  0
  6  7  1  0  0  0  0
  6 41  1  0  0  0  0
  7  8  1  0  0  0  0
  7 23  1  0  0  0  0
  7 42  1  0  0  0  0
  8  9  2  0  0  0  0
  9 10  1  0  0  0  0
  9 21  1  0  0  0  0
 10 11  1  0  0  0  0
 11 12  1  0  0  0  0
 11 43  1  0  0  0  0
 11 44  1  0  0  0  0
 12 17  2  0  0  0  0
 12 13  1  0  0  0  0
 13 14  2  0  0  0  0
 13 45  1  0  0  0  0
 14 15  1  0  0  0  0
 14 46  1  0  0  0  0
 15 16  2  0  0  0  0
 15 19  1  0  0  0  0
 16 17  1  0  0  0  0
 16 18  1  0  0  0  0
 17 47  1  0  0  0  0
 19 20  1  0  0  0  0
 20 48  1  0  0  0  0
 20 49  1  0  0  0  0
 20 50  1  0  0  0  0
 21 22  1  0  0  0  0
 22 51  1  0  0  0  0
 22 52  1  0  0  0  0
 22 53  1  0  0  0  0
 23 28  1  0  0  0  0
 23 24  1  0  0  0  0
 24 25  2  0  0  0  0
 25 26  1  0  0  0  0
 26 27  1  0  0  0  0
 26 28  1  0  0  0  0
 26 29  1  0  0  0  0
 28 54  1  0  0  0  0
 28 55  1  0  0  0  0
 29 30  1  0  0  0  0
 29 56  1  0  0  0  0
 29 57  1  0  0  0  0
 30 35  2  0  0  0  0
 30 31  1  0  0  0  0
 31 32  2  0  0  0  0
 31 58  1  0  0  0  0
 32 33  1  0  0  0  0
 32 59  1  0  0  0  0
 33 34  2  0  0  0  0
 33 60  1  0  0  0  0
 34 35  1  0  0  0  0
 34 61  1  0  0  0  0
 35 62  1  0  0  0  0
M  END
$$$$
CHEMBL519357
  -OEChem-07121202283D

 62 66  0     1  0  0  0  0  0999 V2000
   -0.0187    1.5258    0.0104 C   0  0  0  0  0  0  0  0  0  0  0  0
    0.0021   -0.0041    0.0020 C   0  0  0  0  0  0  0  0  0  0  0  0
   -1.3723   -0.5112    0.0124 N   0  0  0  0  0  0  0  0  0  0  0  0
   -2.0034   -0.7483    1.1691 C   0  0  0  0  0  0  0  0  0  0  0  0
   -1.3553   -0.6371    2.1879 O   0  0  0  0  0  0  0  0  0  0  0  0
   -3.4368   -1.1374    1.3108 C   0  0  1  0  0  0  0  0  0  0  0  0
   -4.0693   -1.6539    0.0118 C   0  0  2  0  0  0  0  0  0  0  0  0
   -3.9792   -3.1148    0.1404 N   0  0  0  0  0  0  0  0  0  0  0  0
   -3.6459   -3.4216    1.3539 C   0  0  0  0  0  0  0  0  0  0  0  0
   -3.5246   -2.3338    2.1810 N   0  0  0  0  0  0  0  0  0  0  0  0
   -3.4882   -2.3515    3.6455 C   0  0  0  0  0  0  0  0  0  0  0  0
   -4.8901   -2.2271    4.1843 C   0  0  0  0  0  0  0  0  0  0  0  0
   -5.4237   -0.9768    4.4375 C   0  0  0  0  0  0  0  0  0  0  0  0
   -6.7084   -0.8595    4.9319 C   0  0  0  0  0  0  0  0  0  0  0  0
   -7.4639   -1.9973    5.1742 C   0  0  0  0  0  0  0  0  0  0  0  0
   -6.9265   -3.2515    4.9190 C   0  0  0  0  0  0  0  0  0  0  0  0
   -5.6422   -3.3630    4.4194 C   0  0  0  0  0  0  0  0  0  0  0  0
   -7.8684   -4.6782    5.2208 Cl  0  0  0  0  0  0  0  0  0  0  0  0
   -8.7279   -1.8843    5.6611 O   0  0  0  0  0  0  0  0  0  0  0  0
   -9.2152   -0.5625    5.9004 C   0  0  0  0  0  0  0  0  0  0  0  0
   -3.4384   -4.6914    1.7658 O   0  0  0  0  0  0  0  0  0  0  0  0
   -3.6018   -5.7242    0.7919 C   0  0  0  0  0  0  0  0  0  0  0  0
   -3.3572   -1.1879   -1.1662 N   0  0  0  0  0  0  0  0  0  0  0  0
   -2.0489   -0.7501   -1.1793 C   0  0  0  0  0  0  0  0  0  0  0  0
   -1.5588   -0.6390   -2.3702 N   0  0  0  0  0  0  0  0  0  0  0  0
   -2.5867   -0.9619   -3.3729 C   0  0  1  0  0  0  0  0  0  0  0  0
   -2.3691   -1.9159   -3.8531 H   0  0  0  0  0  0  0  0  0  0  0  0
   -3.8782   -1.0678   -2.5372 C   0  0  0  0  0  0  0  0  0  0  0  0
   -2.6931    0.1531   -4.4151 C   0  0  0  0  0  0  0  0  0  0  0  0
   -1.4201    0.2120   -5.2195 C   0  0  0  0  0  0  0  0  0  0  0  0
   -0.3740    1.0125   -4.8003 C   0  0  0  0  0  0  0  0  0  0  0  0
    0.7937    1.0665   -5.5382 C   0  0  0  0  0  0  0  0  0  0  0  0
    0.9154    0.3197   -6.6951 C   0  0  0  0  0  0  0  0  0  0  0  0
   -0.1304   -0.4814   -7.1138 C   0  0  0  0  0  0  0  0  0  0  0  0
   -1.2965   -0.5387   -6.3736 C   0  0  0  0  0  0  0  0  0  0  0  0
    1.0039    1.9031    0.0027 H   0  0  0  0  0  0  0  0  0  0  0  0
   -0.5459    1.8868   -0.8726 H   0  0  0  0  0  0  0  0  0  0  0  0
   -0.5289    1.8773    0.9072 H   0  0  0  0  0  0  0  0  0  0  0  0
    0.5123   -0.3556   -0.8948 H   0  0  0  0  0  0  0  0  0  0  0  0
    0.5293   -0.3651    0.8851 H   0  0  0  0  0  0  0  0  0  0  0  0
   -4.0149   -0.3147    1.7317 H   0  0  0  0  0  0  0  0  0  0  0  0
   -5.1150   -1.3502   -0.0373 H   0  0  0  0  0  0  0  0  0  0  0  0
   -3.0497   -3.2892    3.9867 H   0  0  0  0  0  0  0  0  0  0  0  0
   -2.8857   -1.5169    4.0041 H   0  0  0  0  0  0  0  0  0  0  0  0
   -4.8354   -0.0910    4.2488 H   0  0  0  0  0  0  0  0  0  0  0  0
   -7.1241    0.1174    5.1300 H   0  0  0  0  0  0  0  0  0  0  0  0
   -5.2247   -4.3382    4.2167 H   0  0  0  0  0  0  0  0  0  0  0  0
  -10.2331   -0.6149    6.2867 H   0  0  0  0  0  0  0  0  0  0  0  0
   -8.5751   -0.0657    6.6295 H   0  0  0  0  0  0  0  0  0  0  0  0
   -9.2092    0.0014    4.9676 H   0  0  0  0  0  0  0  0  0  0  0  0
   -3.4063   -6.6924    1.2528 H   0  0  0  0  0  0  0  0  0  0  0  0
   -4.6218   -5.7038    0.4082 H   0  0  0  0  0  0  0  0  0  0  0  0
   -2.9018   -5.5643   -0.0282 H   0  0  0  0  0  0  0  0  0  0  0  0
   -4.4559   -1.9504   -2.8116 H   0  0  0  0  0  0  0  0  0  0  0  0
   -4.4748   -0.1623   -2.6477 H   0  0  0  0  0  0  0  0  0  0  0  0
   -3.5335   -0.0492   -5.0791 H   0  0  0  0  0  0  0  0  0  0  0  0
   -2.8493    1.1073   -3.9117 H   0  0  0  0  0  0  0  0  0  0  0  0
   -0.4691    1.5959   -3.8964 H   0  0  0  0  0  0  0  0  0  0  0  0
    1.6108    1.6924   -5.2110 H   0  0  0  0  0  0  0  0  0  0  0  0
    1.8274    0.3625   -7.2719 H   0  0  0  0  0  0  0  0  0  0  0  0
   -0.0354   -1.0646   -8.0179 H   0  0  0  0  0  0  0  0  0  0  0  0
   -2.1121   -1.1675   -6.6988 H   0  0  0  0  0  0  0  0  0  0  0  0
  1  2  1  0  0  0  0
  1 36  1  0  0  0  0
  1 37  1  0  0  0  0
  1 38  1  0  0  0  0
  2  3  1  0  0  0  0
  2 39  1  0  0  0  0
  2 40  1  0  0  0  0
  3 24  1  0  0  0  0
  3  4  1  0  0  0  0
  4  5  2  0  0  0  0
  4  6  1  0  0  0  0
  6 10  1  0  0  0  0
  6  7  1  0  0  0  0
  6 41  1  0  0  0  0
  7  8  1  0  0  0  0
  7 23  1  0  0  0  0
  7 42  1  0  0  0  0
  8  9  2  0  0  0  0
  9 10  1  0  0  0  0
  9 21  1  0  0  0  0
 10 11  1  0  0  0  0
 11 12  1  0  0  0  0
 11 43  1  0  0  0  0
 11 44  1  0  0  0  0
 12 17  2  0  0  0  0
 12 13  1  0  0  0  0
 13 14  2  0  0  0  0
 13 45  1  0  0  0  0
 14 15  1  0  0  0  0
 14 46  1  0  0  0  0
 15 16  2  0  0  0  0
 15 19  1  0  0  0  0
 16 17  1  0  0  0  0
 16 18  1  0  0  0  0
 17 47  1  0  0  0  0
 19 20  1  0  0  0  0
 20 48  1  0  0  0  0
 20 49  1  0  0  0  0
 20 50  1  0  0  0  0
 21 22  1  0  0  0  0
 22 51  1  0  0  0  0
 22 52  1  0  0  0  0
 22 53  1  0  0  0  0
 23 28  1  0  0  0  0
 23 24  1  0  0  0  0
 24 25  2  0  0  0  0
 25 26  1  0  0  0  0
 26 27  1  0  0  0  0
 26 28  1  0  0  0  0
 26 29  1  0  0  0  0
 28 54  1  0  0  0  0
 28 55  1  0  0  0  0
 29 30  1  0  0  0  0
 29 56  1  0  0  0  0
 29 57  1  0  0  0  0
 30 35  2  0  0  0  0
 30 31  1  0  0  0  0
 31 32  2  0  0  0  0
 31 58  1  0  0  0  0
 32 33  1  0  0  0  0
 32 59  1  0  0  0  0
 33 34  2  0  0  0  0
 33 60  1  0  0  0  0
 34 35  1  0  0  0  0
 34 61  1  0  0  0  0
 35 62  1  0  0  0  0
M  END
$$$$
CHEMBL519357
  -OEChem-07121202283D

 62 66  0     1  0  0  0  0  0999 V2000
   -0.0187    1.5258    0.0104 C   0  0  0  0  0  0  0  0  0  0  0  0
    0.0021   -0.0041    0.0020 C   0  0  0  0  0  0  0  0  0  0  0  0
   -1.3723   -0.5112    0.0124 N   0  0  0  0  0  0  0  0  0  0  0  0
   -2.0143   -0.7524    1.1951 C   0  0  0  0  0  0  0  0  0  0  0  0
   -1.4269   -0.6978    2.2544 O   0  0  0  0  0  0  0  0  0  0  0  0
   -3.4585   -1.0832    1.1296 C   0  0  1  0  0  0  0  0  0  0  0  0
   -3.6381   -2.1609    0.0077 C   0  0  1  0  0  0  0  0  0  0  0  0
   -4.9947   -2.5809    0.2751 N   0  0  0  0  0  0  0  0  0  0  0  0
   -5.2199   -2.3789    1.5594 C   0  0  0  0  0  0  0  0  0  0  0  0
   -4.1174   -1.8133    2.2047 N   0  0  0  0  0  0  0  0  0  0  0  0
   -3.7221   -1.9268    3.6108 C   0  0  0  0  0  0  0  0  0  0  0  0
   -4.3578   -0.8134    4.4028 C   0  0  0  0  0  0  0  0  0  0  0  0
   -3.6986    0.3933    4.5488 C   0  0  0  0  0  0  0  0  0  0  0  0
   -4.2786    1.4157    5.2747 C   0  0  0  0  0  0  0  0  0  0  0  0
   -5.5239    1.2317    5.8571 C   0  0  0  0  0  0  0  0  0  0  0  0
   -6.1844    0.0198    5.7090 C   0  0  0  0  0  0  0  0  0  0  0  0
   -5.6017   -0.9983    4.9772 C   0  0  0  0  0  0  0  0  0  0  0  0
   -7.7432   -0.2150    6.4361 Cl  0  0  0  0  0  0  0  0  0  0  0  0
   -6.0963    2.2361    6.5720 O   0  0  0  0  0  0  0  0  0  0  0  0
   -5.3590    3.4551    6.6831 C   0  0  0  0  0  0  0  0  0  0  0  0
   -6.3815   -2.6834    2.1783 O   0  0  0  0  0  0  0  0  0  0  0  0
   -7.4137   -3.2582    1.3744 C   0  0  0  0  0  0  0  0  0  0  0  0
   -3.2369   -1.4922   -1.1992 N   0  0  0  0  0  0  0  0  0  0  0  0
   -2.0488   -0.7501   -1.1852 C   0  0  0  0  0  0  0  0  0  0  0  0
   -1.6854   -0.3827   -2.3660 N   0  0  0  0  0  0  0  0  0  0  0  0
   -2.6616   -0.8305   -3.3724 C   0  0  1  0  0  0  0  0  0  0  0  0
   -2.2428   -1.6291   -3.9847 H   0  0  0  0  0  0  0  0  0  0  0  0
   -3.8361   -1.3696   -2.5211 C   0  0  0  0  0  0  0  0  0  0  0  0
   -3.1077    0.3412   -4.2493 C   0  0  0  0  0  0  0  0  0  0  0  0
   -1.9428    0.8225   -5.0753 C   0  0  0  0  0  0  0  0  0  0  0  0
   -1.1045    1.8047   -4.5818 C   0  0  0  0  0  0  0  0  0  0  0  0
   -0.0359    2.2462   -5.3395 C   0  0  0  0  0  0  0  0  0  0  0  0
    0.1947    1.7051   -6.5905 C   0  0  0  0  0  0  0  0  0  0  0  0
   -0.6430    0.7222   -7.0836 C   0  0  0  0  0  0  0  0  0  0  0  0
   -1.7091    0.2777   -6.3241 C   0  0  0  0  0  0  0  0  0  0  0  0
    1.0039    1.9031    0.0027 H   0  0  0  0  0  0  0  0  0  0  0  0
   -0.5459    1.8868   -0.8726 H   0  0  0  0  0  0  0  0  0  0  0  0
   -0.5289    1.8773    0.9072 H   0  0  0  0  0  0  0  0  0  0  0  0
    0.5123   -0.3556   -0.8948 H   0  0  0  0  0  0  0  0  0  0  0  0
    0.5293   -0.3651    0.8851 H   0  0  0  0  0  0  0  0  0  0  0  0
   -4.0316   -0.1889    0.8847 H   0  0  0  0  0  0  0  0  0  0  0  0
   -2.9570   -2.9919    0.1912 H   0  0  0  0  0  0  0  0  0  0  0  0
   -4.0529   -2.8877    4.0048 H   0  0  0  0  0  0  0  0  0  0  0  0
   -2.6373   -1.8556    3.6901 H   0  0  0  0  0  0  0  0  0  0  0  0
   -2.7289    0.5365    4.0953 H   0  0  0  0  0  0  0  0  0  0  0  0
   -3.7625    2.3576    5.3888 H   0  0  0  0  0  0  0  0  0  0  0  0
   -6.1165   -1.9402    4.8579 H   0  0  0  0  0  0  0  0  0  0  0  0
   -5.9274    4.1707    7.2773 H   0  0  0  0  0  0  0  0  0  0  0  0
   -4.4028    3.2586    7.1680 H   0  0  0  0  0  0  0  0  0  0  0  0
   -5.1844    3.8661    5.6887 H   0  0  0  0  0  0  0  0  0  0  0  0
   -8.2896   -3.4538    1.9930 H   0  0  0  0  0  0  0  0  0  0  0  0
   -7.6801   -2.5660    0.5757 H   0  0  0  0  0  0  0  0  0  0  0  0
   -7.0586   -4.1934    0.9413 H   0  0  0  0  0  0  0  0  0  0  0  0
   -4.1757   -2.3397   -2.8841 H   0  0  0  0  0  0  0  0  0  0  0  0
   -4.6551   -0.6504   -2.5101 H   0  0  0  0  0  0  0  0  0  0  0  0
   -3.9114    0.0155   -4.9096 H   0  0  0  0  0  0  0  0  0  0  0  0
   -3.4644    1.1536   -3.6161 H   0  0  0  0  0  0  0  0  0  0  0  0
   -1.2847    2.2274   -3.6044 H   0  0  0  0  0  0  0  0  0  0  0  0
    0.6185    3.0141   -4.9543 H   0  0  0  0  0  0  0  0  0  0  0  0
    1.0291    2.0505   -7.1827 H   0  0  0  0  0  0  0  0  0  0  0  0
   -0.4630    0.2998   -8.0611 H   0  0  0  0  0  0  0  0  0  0  0  0
   -2.3614   -0.4928   -6.7078 H   0  0  0  0  0  0  0  0  0  0  0  0
  1  2  1  0  0  0  0
  1 36  1  0  0  0  0
  1 37  1  0  0  0  0
  1 38  1  0  0  0  0
  2  3  1  0  0  0  0
  2 39  1  0  0  0  0
  2 40  1  0  0  0  0
  3 24  1  0  0  0  0
  3  4  1  0  0  0  0
  4  5  2  0  0  0  0
  4  6  1  0  0  0  0
  6 10  1  0  0  0  0
  6  7  1  0  0  0  0
  6 41  1  0  0  0  0
  7  8  1  0  0  0  0
  7 23  1  0  0  0  0
  7 42  1  0  0  0  0
  8  9  2  0  0  0  0
  9 10  1  0  0  0  0
  9 21  1  0  0  0  0
 10 11  1  0  0  0  0
 11 12  1  0  0  0  0
 11 43  1  0  0  0  0
 11 44  1  0  0  0  0
 12 17  2  0  0  0  0
 12 13  1  0  0  0  0
 13 14  2  0  0  0  0
 13 45  1  0  0  0  0
 14 15  1  0  0  0  0
 14 46  1  0  0  0  0
 15 16  2  0  0  0  0
 15 19  1  0  0  0  0
 16 17  1  0  0  0  0
 16 18  1  0  0  0  0
 17 47  1  0  0  0  0
 19 20  1  0  0  0  0
 20 48  1  0  0  0  0
 20 49  1  0  0  0  0
 20 50  1  0  0  0  0
 21 22  1  0  0  0  0
 22 51  1  0  0  0  0
 22 52  1  0  0  0  0
 22 53  1  0  0  0  0
 23 28  1  0  0  0  0
 23 24  1  0  0  0  0
 24 25  2  0  0  0  0
 25 26  1  0  0  0  0
 26 27  1  0  0  0  0
 26 28  1  0  0  0  0
 26 29  1  0  0  0  0
 28 54  1  0  0  0  0
 28 55  1  0  0  0  0
 29 30  1  0  0  0  0
 29 56  1  0  0  0  0
 29 57  1  0  0  0  0
 30 35  2  0  0  0  0
 30 31  1  0  0  0  0
 31 32  2  0  0  0  0
 31 58  1  0  0  0  0
 32 33  1  0  0  0  0
 32 59  1  0  0  0  0
 33 34  2  0  0  0  0
 33 60  1  0  0  0  0
 34 35  1  0  0  0  0
 34 61  1  0  0  0  0
 35 62  1  0  0  0  0
M  END
$$$$
CHEMBL551250
  -OEChem-07121202283D

 66 69  0     0  0  0  0  0  0999 V2000
   -0.0187    1.5258    0.0104 C   0  0  0  0  0  0  0  0  0  0  0  0
    0.0021   -0.0041    0.0020 C   0  0  0  0  0  0  0  0  0  0  0  0
    0.7182   -0.4975   -1.2568 C   0  0  0  0  0  0  0  0  0  0  0  0
    0.7376   -1.9263   -1.2646 O   0  0  0  0  0  0  0  0  0  0  0  0
    1.3873   -2.4925   -2.4045 C   0  0  0  0  0  0  0  0  0  0  0  0
    1.3486   -4.0190   -2.3077 C   0  0  0  0  0  0  0  0  0  0  0  0
   -0.0404   -4.4782   -2.3855 N   0  0  0  0  0  0  0  0  0  0  0  0
   -0.7994   -4.6151   -1.2378 C   0  0  0  0  0  0  0  0  0  0  0  0
   -0.2492   -4.3176    0.0047 C   0  0  0  0  0  0  0  0  0  0  0  0
   -1.0510   -4.4695    1.1355 C   0  0  0  0  0  0  0  0  0  0  0  0
   -2.3695   -4.9120    0.9826 C   0  0  0  0  0  0  0  0  0  0  0  0
   -2.8608   -5.1849   -0.2024 N   0  0  0  0  0  0  0  0  0  0  0  0
   -2.1331   -5.0552   -1.3150 C   0  0  0  0  0  0  0  0  0  0  0  0
   -2.6862   -5.3486   -2.5101 N   0  0  0  0  0  0  0  0  0  0  0  0
   -2.0014   -5.2326   -3.6195 C   0  0  0  0  0  0  0  0  0  0  0  0
   -0.6006   -4.7688   -3.5803 C   0  0  0  0  0  0  0  0  0  0  0  0
    0.0411   -4.6535   -4.6080 O   0  0  0  0  0  0  0  0  0  0  0  0
   -2.5923   -5.5396   -4.8297 N   0  0  0  0  0  0  0  0  0  0  0  0
   -3.9842   -5.9947   -4.8706 C   0  0  0  0  0  0  0  0  0  0  0  0
   -4.3900   -6.2646   -6.3209 C   0  0  0  0  0  0  0  0  0  0  0  0
   -5.7858   -6.7209   -6.3620 N   0  0  0  0  0  0  0  0  0  0  0  0
   -5.9303   -8.0332   -5.7152 C   0  0  0  0  0  0  0  0  0  0  0  0
   -7.4055   -8.4424   -5.7274 C   0  0  0  0  0  0  0  0  0  0  0  0
   -7.8824   -8.4479   -7.0757 O   0  0  0  0  0  0  0  0  0  0  0  0
   -7.7574   -7.1853   -7.7357 C   0  0  0  0  0  0  0  0  0  0  0  0
   -6.2857   -6.7633   -7.7439 C   0  0  0  0  0  0  0  0  0  0  0  0
   -0.5128   -4.1663    2.4834 C   0  0  0  0  0  0  0  0  0  0  0  0
   -1.3144   -4.3238    3.6200 C   0  0  0  0  0  0  0  0  0  0  0  0
   -0.7688   -4.0288    4.8541 C   0  0  0  0  0  0  0  0  0  0  0  0
    0.5480   -3.5887    4.9269 C   0  0  0  0  0  0  0  0  0  0  0  0
    1.2796   -3.4502    3.8333 N   0  0  0  0  0  0  0  0  0  0  0  0
    0.7994   -3.7263    2.6374 C   0  0  0  0  0  0  0  0  0  0  0  0
    1.0899   -3.2968    6.1356 O   0  0  0  0  0  0  0  0  0  0  0  0
    2.4469   -2.8491    6.1472 C   0  0  0  0  0  0  0  0  0  0  0  0
    1.0039    1.9031    0.0027 H   0  0  0  0  0  0  0  0  0  0  0  0
   -0.5459    1.8868   -0.8726 H   0  0  0  0  0  0  0  0  0  0  0  0
   -0.5289    1.8773    0.9072 H   0  0  0  0  0  0  0  0  0  0  0  0
    0.5293   -0.3651    0.8851 H   0  0  0  0  0  0  0  0  0  0  0  0
   -1.0205   -0.3814    0.0098 H   0  0  0  0  0  0  0  0  0  0  0  0
    0.1910   -0.1364   -2.1398 H   0  0  0  0  0  0  0  0  0  0  0  0
    1.7408   -0.1202   -1.2645 H   0  0  0  0  0  0  0  0  0  0  0  0
    0.8740   -2.1729   -3.3114 H   0  0  0  0  0  0  0  0  0  0  0  0
    2.4238   -2.1566   -2.4361 H   0  0  0  0  0  0  0  0  0  0  0  0
    1.9203   -4.4498   -3.1297 H   0  0  0  0  0  0  0  0  0  0  0  0
    1.7828   -4.3340   -1.3589 H   0  0  0  0  0  0  0  0  0  0  0  0
    0.7724   -3.9781    0.0914 H   0  0  0  0  0  0  0  0  0  0  0  0
   -2.9936   -5.0314    1.8559 H   0  0  0  0  0  0  0  0  0  0  0  0
   -2.0856   -5.4539   -5.6524 H   0  0  0  0  0  0  0  0  0  0  0  0
   -4.0842   -6.9109   -4.2888 H   0  0  0  0  0  0  0  0  0  0  0  0
   -4.6308   -5.2246   -4.4498 H   0  0  0  0  0  0  0  0  0  0  0  0
   -4.2900   -5.3484   -6.9028 H   0  0  0  0  0  0  0  0  0  0  0  0
   -3.7435   -7.0347   -6.7418 H   0  0  0  0  0  0  0  0  0  0  0  0
   -5.3428   -8.7734   -6.2584 H   0  0  0  0  0  0  0  0  0  0  0  0
   -5.5779   -7.9723   -4.6856 H   0  0  0  0  0  0  0  0  0  0  0  0
   -7.5101   -9.4398   -5.3003 H   0  0  0  0  0  0  0  0  0  0  0  0
   -7.9853   -7.7313   -5.1391 H   0  0  0  0  0  0  0  0  0  0  0  0
   -8.1165   -7.2735   -8.7610 H   0  0  0  0  0  0  0  0  0  0  0  0
   -8.3475   -6.4376   -7.2057 H   0  0  0  0  0  0  0  0  0  0  0  0
   -6.1928   -5.7755   -8.1950 H   0  0  0  0  0  0  0  0  0  0  0  0
   -5.7039   -7.4832   -8.3195 H   0  0  0  0  0  0  0  0  0  0  0  0
   -2.3348   -4.6673    3.5340 H   0  0  0  0  0  0  0  0  0  0  0  0
   -1.3585   -4.1385    5.7523 H   0  0  0  0  0  0  0  0  0  0  0  0
    1.4284   -3.6058    1.7678 H   0  0  0  0  0  0  0  0  0  0  0  0
    2.5331   -1.9353    5.5592 H   0  0  0  0  0  0  0  0  0  0  0  0
    2.7555   -2.6511    7.1737 H   0  0  0  0  0  0  0  0  0  0  0  0
    3.0873   -3.6194    5.7175 H   0  0  0  0  0  0  0  0  0  0  0  0
  1  2  1  0  0  0  0
  1 35  1  0  0  0  0
  1 36  1  0  0  0  0
  1 37  1  0  0  0  0
  2  3  1  0  0  0  0
  2 38  1  0  0  0  0
  2 39  1  0  0  0  0
  3  4  1  0  0  0  0
  3 40  1  0  0  0  0
  3 41  1  0  0  0  0
  4  5  1  0  0  0  0
  5  6  1  0  0  0  0
  5 42  1  0  0  0  0
  5 43  1  0  0  0  0
  6  7  1  0  0  0  0
  6 44  1  0  0  0  0
  6 45  1  0  0  0  0
  7 16  1  0  0  0  0
  7  8  1  0  0  0  0
  8 13  2  0  0  0  0
  8  9  1  0  0  0  0
  9 10  2  0  0  0  0
  9 46  1  0  0  0  0
 10 11  1  0  0  0  0
 10 27  1  0  0  0  0
 11 12  2  0  0  0  0
 11 47  1  0  0  0  0
 12 13  1  0  0  0  0
 13 14  1  0  0  0  0
 14 15  2  0  0  0  0
 15 16  1  0  0  0  0
 15 18  1  0  0  0  0
 16 17  2  0  0  0  0
 18 19  1  0  0  0  0
 18 48  1  0  0  0  0
 19 20  1  0  0  0  0
 19 49  1  0  0  0  0
 19 50  1  0  0  0  0
 20 21  1  0  0  0  0
 20 51  1  0  0  0  0
 20 52  1  0  0  0  0
 21 26  1  0  0  0  0
 21 22  1  0  0  0  0
 22 23  1  0  0  0  0
 22 53  1  0  0  0  0
 22 54  1  0  0  0  0
 23 24  1  0  0  0  0
 23 55  1  0  0  0  0
 23 56  1  0  0  0  0
 24 25  1  0  0  0  0
 25 26  1  0  0  0  0
 25 57  1  0  0  0  0
 25 58  1  0  0  0  0
 26 59  1  0  0  0  0
 26 60  1  0  0  0  0
 27 32  2  0  0  0  0
 27 28  1  0  0  0  0
 28 29  2  0  0  0  0
 28 61  1  0  0  0  0
 29 30  1  0  0  0  0
 29 62  1  0  0  0  0
 30 31  2  0  0  0  0
 30 33  1  0  0  0  0
 31 32  1  0  0  0  0
 32 63  1  0  0  0  0
 33 34  1  0  0  0  0
 34 64  1  0  0  0  0
 34 65  1  0  0  0  0
 34 66  1  0  0  0  0
M  END
$$$$
CHEMBL551250
  -OEChem-07121202283D

 67 70  0     0  0  0  0  0  0999 V2000
   -0.0187    1.5258    0.0104 C   0  0  0  0  0  0  0  0  0  0  0  0
    0.0021   -0.0041    0.0020 C   0  0  0  0  0  0  0  0  0  0  0  0
    0.7421   -0.5109    1.2415 C   0  0  0  0  0  0  0  0  0  0  0  0
    0.7614   -1.9398    1.2337 O   0  0  0  0  0  0  0  0  0  0  0  0
    1.4328   -2.5181    2.3548 C   0  0  0  0  0  0  0  0  0  0  0  0
    1.3920   -4.0434    2.2424 C   0  0  0  0  0  0  0  0  0  0  0  0
    2.1607   -4.4673    1.0694 N   0  0  0  0  0  0  0  0  0  0  0  0
    1.5482   -4.5891   -0.1642 C   0  0  0  0  0  0  0  0  0  0  0  0
    0.1925   -4.3099   -0.3031 C   0  0  0  0  0  0  0  0  0  0  0  0
   -0.3838   -4.4456   -1.5657 C   0  0  0  0  0  0  0  0  0  0  0  0
    0.4144   -4.8544   -2.6397 C   0  0  0  0  0  0  0  0  0  0  0  0
    1.6904   -5.1106   -2.4781 N   0  0  0  0  0  0  0  0  0  0  0  0
    2.2884   -4.9954   -1.2892 C   0  0  0  0  0  0  0  0  0  0  0  0
    3.6043   -5.2706   -1.1765 N   0  0  0  0  0  0  0  0  0  0  0  0
    4.2211   -5.1679   -0.0266 C   0  0  0  0  0  0  0  0  0  0  0  0
    3.4799   -4.7396    1.1760 C   0  0  0  0  0  0  0  0  0  0  0  0
    4.0474   -4.6369    2.2477 O   0  0  0  0  0  0  0  0  0  0  0  0
    5.5692   -5.4558    0.0607 N   0  0  0  0  0  0  0  0  0  0  0  0
    6.3074   -5.8756   -1.1331 C   0  0  0  0  0  0  0  0  0  0  0  0
    7.7704   -6.1303   -0.7647 C   0  0  0  0  0  0  0  0  0  0  0  0
    8.5105   -6.5513   -1.9618 N   0  3  0  0  0  0  0  0  0  0  0  0
    7.9962   -7.8473   -2.4253 C   0  0  0  0  0  0  0  0  0  0  0  0
    8.7688   -8.2836   -3.6727 C   0  0  0  0  0  0  0  0  0  0  0  0
   10.1636   -8.3521   -3.3634 O   0  0  0  0  0  0  0  0  0  0  0  0
   10.7064   -7.1186   -2.8842 C   0  0  0  0  0  0  0  0  0  0  0  0
    9.9374   -6.6801   -1.6354 C   0  0  0  0  0  0  0  0  0  0  0  0
   -1.8248   -4.1608   -1.7675 C   0  0  0  0  0  0  0  0  0  0  0  0
   -2.4061   -4.3021   -3.0330 C   0  0  0  0  0  0  0  0  0  0  0  0
   -3.7521   -4.0251   -3.1717 C   0  0  0  0  0  0  0  0  0  0  0  0
   -4.4800   -3.6184   -2.0592 C   0  0  0  0  0  0  0  0  0  0  0  0
   -3.9007   -3.4946   -0.8763 N   0  0  0  0  0  0  0  0  0  0  0  0
   -2.6207   -3.7543   -0.6996 C   0  0  0  0  0  0  0  0  0  0  0  0
   -5.8022   -3.3444   -2.1885 O   0  0  0  0  0  0  0  0  0  0  0  0
   -6.4973   -2.9310   -1.0104 C   0  0  0  0  0  0  0  0  0  0  0  0
    1.0039    1.9031    0.0027 H   0  0  0  0  0  0  0  0  0  0  0  0
   -0.5459    1.8868   -0.8726 H   0  0  0  0  0  0  0  0  0  0  0  0
   -0.5289    1.8773    0.9072 H   0  0  0  0  0  0  0  0  0  0  0  0
   -1.0205   -0.3814    0.0098 H   0  0  0  0  0  0  0  0  0  0  0  0
    0.5123   -0.3556   -0.8948 H   0  0  0  0  0  0  0  0  0  0  0  0
    1.7647   -0.1336    1.2338 H   0  0  0  0  0  0  0  0  0  0  0  0
    0.2319   -0.1594    2.1383 H   0  0  0  0  0  0  0  0  0  0  0  0
    2.4697   -2.1825    2.3702 H   0  0  0  0  0  0  0  0  0  0  0  0
    0.9369   -2.2082    3.2747 H   0  0  0  0  0  0  0  0  0  0  0  0
    1.8250   -4.4856    3.1397 H   0  0  0  0  0  0  0  0  0  0  0  0
    0.3582   -4.3726    2.1376 H   0  0  0  0  0  0  0  0  0  0  0  0
   -0.3984   -3.9965    0.5448 H   0  0  0  0  0  0  0  0  0  0  0  0
   -0.0281   -4.9611   -3.6190 H   0  0  0  0  0  0  0  0  0  0  0  0
    6.0272   -5.3800    0.9124 H   0  0  0  0  0  0  0  0  0  0  0  0
    5.8677   -6.7911   -1.5288 H   0  0  0  0  0  0  0  0  0  0  0  0
    6.2540   -5.0911   -1.8879 H   0  0  0  0  0  0  0  0  0  0  0  0
    8.2100   -5.2148   -0.3690 H   0  0  0  0  0  0  0  0  0  0  0  0
    7.8238   -6.9148   -0.0099 H   0  0  0  0  0  0  0  0  0  0  0  0
    8.1244   -8.5915   -1.6394 H   0  0  0  0  0  0  0  0  0  0  0  0
    6.9377   -7.7527   -2.6678 H   0  0  0  0  0  0  0  0  0  0  0  0
    8.4184   -9.2647   -3.9932 H   0  0  0  0  0  0  0  0  0  0  0  0
    8.6083   -7.5600   -4.4719 H   0  0  0  0  0  0  0  0  0  0  0  0
   11.7584   -7.2566   -2.6342 H   0  0  0  0  0  0  0  0  0  0  0  0
   10.6123   -6.3551   -3.6565 H   0  0  0  0  0  0  0  0  0  0  0  0
   10.3200   -5.7192   -1.2915 H   0  0  0  0  0  0  0  0  0  0  0  0
   10.0649   -7.4248   -0.8498 H   0  0  0  0  0  0  0  0  0  0  0  0
   -1.8164   -4.6195   -3.8803 H   0  0  0  0  0  0  0  0  0  0  0  0
   -4.2336   -4.1231   -4.1335 H   0  0  0  0  0  0  0  0  0  0  0  0
   -2.1838   -3.6466    0.2822 H   0  0  0  0  0  0  0  0  0  0  0  0
   -7.5436   -2.7445   -1.2525 H   0  0  0  0  0  0  0  0  0  0  0  0
   -6.4332   -3.7157   -0.2565 H   0  0  0  0  0  0  0  0  0  0  0  0
   -6.0454   -2.0177   -0.6235 H   0  0  0  0  0  0  0  0  0  0  0  0
    8.3928   -5.8625   -2.6897 H   0  0  0  0  0  0  0  0  0  0  0  0
  1  2  1  0  0  0  0
  1 35  1  0  0  0  0
  1 36  1  0  0  0  0
  1 37  1  0  0  0  0
  2  3  1  0  0  0  0
  2 38  1  0  0  0  0
  2 39  1  0  0  0  0
  3  4  1  0  0  0  0
  3 40  1  0  0  0  0
  3 41  1  0  0  0  0
  4  5  1  0  0  0  0
  5  6  1  0  0  0  0
  5 42  1  0  0  0  0
  5 43  1  0  0  0  0
  6  7  1  0  0  0  0
  6 44  1  0  0  0  0
  6 45  1  0  0  0  0
  7 16  1  0  0  0  0
  7  8  1  0  0  0  0
  8 13  2  0  0  0  0
  8  9  1  0  0  0  0
  9 10  2  0  0  0  0
  9 46  1  0  0  0  0
 10 11  1  0  0  0  0
 10 27  1  0  0  0  0
 11 12  2  0  0  0  0
 11 47  1  0  0  0  0
 12 13  1  0  0  0  0
 13 14  1  0  0  0  0
 14 15  2  0  0  0  0
 15 16  1  0  0  0  0
 15 18  1  0  0  0  0
 16 17  2  0  0  0  0
 18 19  1  0  0  0  0
 18 48  1  0  0  0  0
 19 20  1  0  0  0  0
 19 49  1  0  0  0  0
 19 50  1  0  0  0  0
 20 21  1  0  0  0  0
 20 51  1  0  0  0  0
 20 52  1  0  0  0  0
 21 26  1  0  0  0  0
 21 22  1  0  0  0  0
 21 67  1  0  0  0  0
 22 23  1  0  0  0  0
 22 53  1  0  0  0  0
 22 54  1  0  0  0  0
 23 24  1  0  0  0  0
 23 55  1  0  0  0  0
 23 56  1  0  0  0  0
 24 25  1  0  0  0  0
 25 26  1  0  0  0  0
 25 57  1  0  0  0  0
 25 58  1  0  0  0  0
 26 59  1  0  0  0  0
 26 60  1  0  0  0  0
 27 32  2  0  0  0  0
 27 28  1  0  0  0  0
 28 29  2  0  0  0  0
 28 61  1  0  0  0  0
 29 30  1  0  0  0  0
 29 62  1  0  0  0  0
 30 31  2  0  0  0  0
 30 33  1  0  0  0  0
 31 32  1  0  0  0  0
 32 63  1  0  0  0  0
 33 34  1  0  0  0  0
 34 64  1  0  0  0  0
 34 65  1  0  0  0  0
 34 66  1  0  0  0  0
M  CHG  1  21   1
M  END
$$$$
CHEMBL551050
  -OEChem-07121202283D

 65 68  0     0  0  0  0  0  0999 V2000
   -0.0187    1.5258    0.0104 C   0  0  0  0  0  0  0  0  0  0  0  0
    0.0021   -0.0041    0.0020 C   0  0  0  0  0  0  0  0  0  0  0  0
    0.7182   -0.4975   -1.2568 C   0  0  0  0  0  0  0  0  0  0  0  0
    0.7376   -1.9263   -1.2646 O   0  0  0  0  0  0  0  0  0  0  0  0
    1.3873   -2.4925   -2.4045 C   0  0  0  0  0  0  0  0  0  0  0  0
    1.3486   -4.0190   -2.3077 C   0  0  0  0  0  0  0  0  0  0  0  0
   -0.0404   -4.4782   -2.3855 N   0  0  0  0  0  0  0  0  0  0  0  0
   -0.7967   -4.6144   -1.2394 C   0  0  0  0  0  0  0  0  0  0  0  0
   -2.1320   -5.0571   -1.3219 C   0  0  0  0  0  0  0  0  0  0  0  0
   -2.8554   -5.1860   -0.2055 N   0  0  0  0  0  0  0  0  0  0  0  0
   -2.3220   -4.9007    0.9624 C   0  0  0  0  0  0  0  0  0  0  0  0
   -0.9960   -4.4605    1.0449 C   0  0  0  0  0  0  0  0  0  0  0  0
   -0.2666   -4.3289   -0.0580 N   0  0  0  0  0  0  0  0  0  0  0  0
   -0.4041   -4.1411    2.3646 C   0  0  0  0  0  0  0  0  0  0  0  0
   -1.1603   -4.2816    3.5352 C   0  0  0  0  0  0  0  0  0  0  0  0
   -0.5651   -3.9717    4.7419 C   0  0  0  0  0  0  0  0  0  0  0  0
    0.7548   -3.5338    4.7559 C   0  0  0  0  0  0  0  0  0  0  0  0
    1.4424   -3.4111    3.6321 N   0  0  0  0  0  0  0  0  0  0  0  0
    0.9147   -3.7021    2.4603 C   0  0  0  0  0  0  0  0  0  0  0  0
    1.3453   -3.2277    5.9378 O   0  0  0  0  0  0  0  0  0  0  0  0
    2.7025   -2.7833    5.8891 C   0  0  0  0  0  0  0  0  0  0  0  0
   -2.6851   -5.3523   -2.5150 N   0  0  0  0  0  0  0  0  0  0  0  0
   -1.9989   -5.2349   -3.6242 C   0  0  0  0  0  0  0  0  0  0  0  0
   -0.5991   -4.7683   -3.5804 C   0  0  0  0  0  0  0  0  0  0  0  0
    0.0445   -4.6518   -4.6066 O   0  0  0  0  0  0  0  0  0  0  0  0
   -2.5864   -5.5435   -4.8355 N   0  0  0  0  0  0  0  0  0  0  0  0
   -3.9771   -6.0021   -4.8795 C   0  0  0  0  0  0  0  0  0  0  0  0
   -4.3791   -6.2732   -6.3306 C   0  0  0  0  0  0  0  0  0  0  0  0
   -5.7735   -6.7331   -6.3747 N   0  0  0  0  0  0  0  0  0  0  0  0
   -5.9161   -8.0457   -5.7282 C   0  0  0  0  0  0  0  0  0  0  0  0
   -7.3902   -8.4587   -5.7435 C   0  0  0  0  0  0  0  0  0  0  0  0
   -7.8642   -8.4654   -7.0928 O   0  0  0  0  0  0  0  0  0  0  0  0
   -7.7410   -7.2026   -7.7526 C   0  0  0  0  0  0  0  0  0  0  0  0
   -6.2704   -6.7769   -7.7576 C   0  0  0  0  0  0  0  0  0  0  0  0
    1.0039    1.9031    0.0027 H   0  0  0  0  0  0  0  0  0  0  0  0
   -0.5459    1.8868   -0.8726 H   0  0  0  0  0  0  0  0  0  0  0  0
   -0.5289    1.8773    0.9072 H   0  0  0  0  0  0  0  0  0  0  0  0
    0.5293   -0.3651    0.8851 H   0  0  0  0  0  0  0  0  0  0  0  0
   -1.0205   -0.3814    0.0098 H   0  0  0  0  0  0  0  0  0  0  0  0
    0.1910   -0.1364   -2.1398 H   0  0  0  0  0  0  0  0  0  0  0  0
    1.7408   -0.1202   -1.2645 H   0  0  0  0  0  0  0  0  0  0  0  0
    0.8740   -2.1729   -3.3114 H   0  0  0  0  0  0  0  0  0  0  0  0
    2.4238   -2.1566   -2.4361 H   0  0  0  0  0  0  0  0  0  0  0  0
    1.9203   -4.4498   -3.1297 H   0  0  0  0  0  0  0  0  0  0  0  0
    1.7828   -4.3340   -1.3589 H   0  0  0  0  0  0  0  0  0  0  0  0
   -2.9102   -5.0062    1.8621 H   0  0  0  0  0  0  0  0  0  0  0  0
   -2.1839   -4.6236    3.4949 H   0  0  0  0  0  0  0  0  0  0  0  0
   -1.1183   -4.0679    5.6644 H   0  0  0  0  0  0  0  0  0  0  0  0
    1.5087   -3.5947    1.5647 H   0  0  0  0  0  0  0  0  0  0  0  0
    3.3236   -3.5607    5.4440 H   0  0  0  0  0  0  0  0  0  0  0  0
    2.7668   -1.8774    5.2863 H   0  0  0  0  0  0  0  0  0  0  0  0
    3.0524   -2.5729    6.8997 H   0  0  0  0  0  0  0  0  0  0  0  0
   -2.0782   -5.4565   -5.6572 H   0  0  0  0  0  0  0  0  0  0  0  0
   -4.0759   -6.9186   -4.2978 H   0  0  0  0  0  0  0  0  0  0  0  0
   -4.6265   -5.2337   -4.4601 H   0  0  0  0  0  0  0  0  0  0  0  0
   -4.2802   -5.3567   -6.9123 H   0  0  0  0  0  0  0  0  0  0  0  0
   -3.7296   -7.0416   -6.7501 H   0  0  0  0  0  0  0  0  0  0  0  0
   -5.3255   -8.7844   -6.2701 H   0  0  0  0  0  0  0  0  0  0  0  0
   -5.5661   -7.9839   -4.6977 H   0  0  0  0  0  0  0  0  0  0  0  0
   -7.4931   -9.4563   -5.3166 H   0  0  0  0  0  0  0  0  0  0  0  0
   -7.9731   -7.7490   -5.1564 H   0  0  0  0  0  0  0  0  0  0  0  0
   -8.0976   -7.2917   -8.7787 H   0  0  0  0  0  0  0  0  0  0  0  0
   -8.3341   -6.4563   -7.2240 H   0  0  0  0  0  0  0  0  0  0  0  0
   -6.1791   -5.7888   -8.2086 H   0  0  0  0  0  0  0  0  0  0  0  0
   -5.6855   -7.4953   -8.3320 H   0  0  0  0  0  0  0  0  0  0  0  0
  1  2  1  0  0  0  0
  1 35  1  0  0  0  0
  1 36  1  0  0  0  0
  1 37  1  0  0  0  0
  2  3  1  0  0  0  0
  2 38  1  0  0  0  0
  2 39  1  0  0  0  0
  3  4  1  0  0  0  0
  3 40  1  0  0  0  0
  3 41  1  0  0  0  0
  4  5  1  0  0  0  0
  5  6  1  0  0  0  0
  5 42  1  0  0  0  0
  5 43  1  0  0  0  0
  6  7  1  0  0  0  0
  6 44  1  0  0  0  0
  6 45  1  0  0  0  0
  7 24  1  0  0  0  0
  7  8  1  0  0  0  0
  8 13  2  0  0  0  0
  8  9  1  0  0  0  0
  9 10  2  0  0  0  0
  9 22  1  0  0  0  0
 10 11  1  0  0  0  0
 11 12  2  0  0  0  0
 11 46  1  0  0  0  0
 12 13  1  0  0  0  0
 12 14  1  0  0  0  0
 14 19  2  0  0  0  0
 14 15  1  0  0  0  0
 15 16  2  0  0  0  0
 15 47  1  0  0  0  0
 16 17  1  0  0  0  0
 16 48  1  0  0  0  0
 17 18  2  0  0  0  0
 17 20  1  0  0  0  0
 18 19  1  0  0  0  0
 19 49  1  0  0  0  0
 20 21  1  0  0  0  0
 21 50  1  0  0  0  0
 21 51  1  0  0  0  0
 21 52  1  0  0  0  0
 22 23  2  0  0  0  0
 23 24  1  0  0  0  0
 23 26  1  0  0  0  0
 24 25  2  0  0  0  0
 26 27  1  0  0  0  0
 26 53  1  0  0  0  0
 27 28  1  0  0  0  0
 27 54  1  0  0  0  0
 27 55  1  0  0  0  0
 28 29  1  0  0  0  0
 28 56  1  0  0  0  0
 28 57  1  0  0  0  0
 29 34  1  0  0  0  0
 29 30  1  0  0  0  0
 30 31  1  0  0  0  0
 30 58  1  0  0  0  0
 30 59  1  0  0  0  0
 31 32  1  0  0  0  0
 31 60  1  0  0  0  0
 31 61  1  0  0  0  0
 32 33  1  0  0  0  0
 33 34  1  0  0  0  0
 33 62  1  0  0  0  0
 33 63  1  0  0  0  0
 34 64  1  0  0  0  0
 34 65  1  0  0  0  0
M  END
$$$$
CHEMBL551050
  -OEChem-07121202283D

 66 69  0     0  0  0  0  0  0999 V2000
   -0.0187    1.5258    0.0104 C   0  0  0  0  0  0  0  0  0  0  0  0
    0.0021   -0.0041    0.0020 C   0  0  0  0  0  0  0  0  0  0  0  0
    0.7182   -0.4975   -1.2568 C   0  0  0  0  0  0  0  0  0  0  0  0
    0.7376   -1.9263   -1.2646 O   0  0  0  0  0  0  0  0  0  0  0  0
    1.3873   -2.4925   -2.4045 C   0  0  0  0  0  0  0  0  0  0  0  0
    1.3486   -4.0190   -2.3077 C   0  0  0  0  0  0  0  0  0  0  0  0
   -0.0404   -4.4782   -2.3855 N   0  0  0  0  0  0  0  0  0  0  0  0
   -0.7967   -4.6144   -1.2394 C   0  0  0  0  0  0  0  0  0  0  0  0
   -2.1320   -5.0571   -1.3219 C   0  0  0  0  0  0  0  0  0  0  0  0
   -2.8554   -5.1860   -0.2055 N   0  0  0  0  0  0  0  0  0  0  0  0
   -2.3220   -4.9007    0.9624 C   0  0  0  0  0  0  0  0  0  0  0  0
   -0.9960   -4.4605    1.0449 C   0  0  0  0  0  0  0  0  0  0  0  0
   -0.2666   -4.3289   -0.0580 N   0  0  0  0  0  0  0  0  0  0  0  0
   -0.4041   -4.1411    2.3646 C   0  0  0  0  0  0  0  0  0  0  0  0
   -1.1603   -4.2816    3.5352 C   0  0  0  0  0  0  0  0  0  0  0  0
   -0.5651   -3.9717    4.7419 C   0  0  0  0  0  0  0  0  0  0  0  0
    0.7548   -3.5338    4.7559 C   0  0  0  0  0  0  0  0  0  0  0  0
    1.4424   -3.4111    3.6321 N   0  0  0  0  0  0  0  0  0  0  0  0
    0.9147   -3.7021    2.4603 C   0  0  0  0  0  0  0  0  0  0  0  0
    1.3453   -3.2277    5.9378 O   0  0  0  0  0  0  0  0  0  0  0  0
    2.7025   -2.7833    5.8891 C   0  0  0  0  0  0  0  0  0  0  0  0
   -2.6851   -5.3523   -2.5150 N   0  0  0  0  0  0  0  0  0  0  0  0
   -1.9989   -5.2349   -3.6242 C   0  0  0  0  0  0  0  0  0  0  0  0
   -0.5991   -4.7683   -3.5804 C   0  0  0  0  0  0  0  0  0  0  0  0
    0.0445   -4.6518   -4.6066 O   0  0  0  0  0  0  0  0  0  0  0  0
   -2.5864   -5.5435   -4.8355 N   0  0  0  0  0  0  0  0  0  0  0  0
   -3.9771   -6.0021   -4.8795 C   0  0  0  0  0  0  0  0  0  0  0  0
   -4.3791   -6.2732   -6.3306 C   0  0  0  0  0  0  0  0  0  0  0  0
   -5.7735   -6.7331   -6.3747 N   0  3  0  0  0  0  0  0  0  0  0  0
   -5.8834   -8.0302   -5.6931 C   0  0  0  0  0  0  0  0  0  0  0  0
   -7.3372   -8.5071   -5.7402 C   0  0  0  0  0  0  0  0  0  0  0  0
   -7.7616   -8.5923   -7.1035 O   0  0  0  0  0  0  0  0  0  0  0  0
   -7.6506   -7.3578   -7.8173 C   0  0  0  0  0  0  0  0  0  0  0  0
   -6.1974   -6.8788   -7.7740 C   0  0  0  0  0  0  0  0  0  0  0  0
    1.0039    1.9031    0.0027 H   0  0  0  0  0  0  0  0  0  0  0  0
   -0.5459    1.8868   -0.8726 H   0  0  0  0  0  0  0  0  0  0  0  0
   -0.5289    1.8773    0.9072 H   0  0  0  0  0  0  0  0  0  0  0  0
    0.5293   -0.3651    0.8851 H   0  0  0  0  0  0  0  0  0  0  0  0
   -1.0205   -0.3814    0.0098 H   0  0  0  0  0  0  0  0  0  0  0  0
    0.1910   -0.1364   -2.1398 H   0  0  0  0  0  0  0  0  0  0  0  0
    1.7408   -0.1202   -1.2645 H   0  0  0  0  0  0  0  0  0  0  0  0
    0.8740   -2.1729   -3.3114 H   0  0  0  0  0  0  0  0  0  0  0  0
    2.4238   -2.1566   -2.4361 H   0  0  0  0  0  0  0  0  0  0  0  0
    1.9203   -4.4498   -3.1297 H   0  0  0  0  0  0  0  0  0  0  0  0
    1.7828   -4.3340   -1.3589 H   0  0  0  0  0  0  0  0  0  0  0  0
   -2.9102   -5.0062    1.8621 H   0  0  0  0  0  0  0  0  0  0  0  0
   -2.1839   -4.6236    3.4949 H   0  0  0  0  0  0  0  0  0  0  0  0
   -1.1183   -4.0679    5.6644 H   0  0  0  0  0  0  0  0  0  0  0  0
    1.5087   -3.5947    1.5647 H   0  0  0  0  0  0  0  0  0  0  0  0
    3.3236   -3.5607    5.4440 H   0  0  0  0  0  0  0  0  0  0  0  0
    2.7668   -1.8774    5.2863 H   0  0  0  0  0  0  0  0  0  0  0  0
    3.0524   -2.5729    6.8997 H   0  0  0  0  0  0  0  0  0  0  0  0
   -2.0782   -5.4565   -5.6572 H   0  0  0  0  0  0  0  0  0  0  0  0
   -4.0759   -6.9186   -4.2978 H   0  0  0  0  0  0  0  0  0  0  0  0
   -4.6265   -5.2337   -4.4601 H   0  0  0  0  0  0  0  0  0  0  0  0
   -4.2802   -5.3567   -6.9123 H   0  0  0  0  0  0  0  0  0  0  0  0
   -3.7296   -7.0416   -6.7501 H   0  0  0  0  0  0  0  0  0  0  0  0
   -5.2454   -8.7589   -6.1931 H   0  0  0  0  0  0  0  0  0  0  0  0
   -5.5693   -7.9232   -4.6549 H   0  0  0  0  0  0  0  0  0  0  0  0
   -7.4135   -9.4890   -5.2731 H   0  0  0  0  0  0  0  0  0  0  0  0
   -7.9701   -7.7988   -5.2056 H   0  0  0  0  0  0  0  0  0  0  0  0
   -7.9537   -7.5080   -8.8534 H   0  0  0  0  0  0  0  0  0  0  0  0
   -8.2942   -6.6102   -7.3537 H   0  0  0  0  0  0  0  0  0  0  0  0
   -6.1163   -5.9171   -8.2806 H   0  0  0  0  0  0  0  0  0  0  0  0
   -5.5592   -7.6079   -8.2732 H   0  0  0  0  0  0  0  0  0  0  0  0
   -6.3649   -6.0588   -5.9125 H   0  0  0  0  0  0  0  0  0  0  0  0
  1  2  1  0  0  0  0
  1 35  1  0  0  0  0
  1 36  1  0  0  0  0
  1 37  1  0  0  0  0
  2  3  1  0  0  0  0
  2 38  1  0  0  0  0
  2 39  1  0  0  0  0
  3  4  1  0  0  0  0
  3 40  1  0  0  0  0
  3 41  1  0  0  0  0
  4  5  1  0  0  0  0
  5  6  1  0  0  0  0
  5 42  1  0  0  0  0
  5 43  1  0  0  0  0
  6  7  1  0  0  0  0
  6 44  1  0  0  0  0
  6 45  1  0  0  0  0
  7 24  1  0  0  0  0
  7  8  1  0  0  0  0
  8 13  2  0  0  0  0
  8  9  1  0  0  0  0
  9 10  2  0  0  0  0
  9 22  1  0  0  0  0
 10 11  1  0  0  0  0
 11 12  2  0  0  0  0
 11 46  1  0  0  0  0
 12 13  1  0  0  0  0
 12 14  1  0  0  0  0
 14 19  2  0  0  0  0
 14 15  1  0  0  0  0
 15 16  2  0  0  0  0
 15 47  1  0  0  0  0
 16 17  1  0  0  0  0
 16 48  1  0  0  0  0
 17 18  2  0  0  0  0
 17 20  1  0  0  0  0
 18 19  1  0  0  0  0
 19 49  1  0  0  0  0
 20 21  1  0  0  0  0
 21 50  1  0  0  0  0
 21 51  1  0  0  0  0
 21 52  1  0  0  0  0
 22 23  2  0  0  0  0
 23 24  1  0  0  0  0
 23 26  1  0  0  0  0
 24 25  2  0  0  0  0
 26 27  1  0  0  0  0
 26 53  1  0  0  0  0
 27 28  1  0  0  0  0
 27 54  1  0  0  0  0
 27 55  1  0  0  0  0
 28 29  1  0  0  0  0
 28 56  1  0  0  0  0
 28 57  1  0  0  0  0
 29 34  1  0  0  0  0
 29 30  1  0  0  0  0
 29 66  1  0  0  0  0
 30 31  1  0  0  0  0
 30 58  1  0  0  0  0
 30 59  1  0  0  0  0
 31 32  1  0  0  0  0
 31 60  1  0  0  0  0
 31 61  1  0  0  0  0
 32 33  1  0  0  0  0
 33 34  1  0  0  0  0
 33 62  1  0  0  0  0
 33 63  1  0  0  0  0
 34 64  1  0  0  0  0
 34 65  1  0  0  0  0
M  CHG  1  29   1
M  END
$$$$
CHEMBL550851
  -OEChem-07121202283D

 65 68  0     0  0  0  0  0  0999 V2000
   -0.0187    1.5258    0.0104 C   0  0  0  0  0  0  0  0  0  0  0  0
    0.0021   -0.0041    0.0020 C   0  0  0  0  0  0  0  0  0  0  0  0
   -1.4333   -0.5336    0.0129 C   0  0  0  0  0  0  0  0  0  0  0  0
   -1.4139   -1.9625    0.0050 O   0  0  0  0  0  0  0  0  0  0  0  0
   -2.7113   -2.5614    0.0142 C   0  0  0  0  0  0  0  0  0  0  0  0
   -2.5698   -4.0848    0.0047 C   0  0  0  0  0  0  0  0  0  0  0  0
   -1.9315   -4.5238    1.2481 N   0  0  0  0  0  0  0  0  0  0  0  0
   -0.5620   -4.6253    1.3316 C   0  0  0  0  0  0  0  0  0  0  0  0
    0.0434   -5.0483    2.5330 C   0  0  0  0  0  0  0  0  0  0  0  0
    1.4432   -5.1390    2.5764 C   0  0  0  0  0  0  0  0  0  0  0  0
    2.1330   -4.8262    1.4962 N   0  0  0  0  0  0  0  0  0  0  0  0
    1.5267   -4.4313    0.3814 C   0  0  0  0  0  0  0  0  0  0  0  0
    0.2078   -4.3301    0.2921 N   0  0  0  0  0  0  0  0  0  0  0  0
    2.3521   -4.0928   -0.8008 C   0  0  0  0  0  0  0  0  0  0  0  0
    3.7480   -4.1934   -0.7452 C   0  0  0  0  0  0  0  0  0  0  0  0
    4.4747   -3.8675   -1.8729 C   0  0  0  0  0  0  0  0  0  0  0  0
    3.8029   -3.4533   -3.0181 C   0  0  0  0  0  0  0  0  0  0  0  0
    2.4824   -3.3682   -3.0384 N   0  0  0  0  0  0  0  0  0  0  0  0
    1.7510   -3.6752   -1.9864 C   0  0  0  0  0  0  0  0  0  0  0  0
    4.5106   -3.1317   -4.1290 O   0  0  0  0  0  0  0  0  0  0  0  0
    3.7656   -2.7132   -5.2743 C   0  0  0  0  0  0  0  0  0  0  0  0
   -0.7015   -5.3576    3.6104 N   0  0  0  0  0  0  0  0  0  0  0  0
   -2.0081   -5.2724    3.5680 C   0  0  0  0  0  0  0  0  0  0  0  0
   -2.6789   -4.8295    2.3316 C   0  0  0  0  0  0  0  0  0  0  0  0
   -3.8920   -4.7436    2.2865 O   0  0  0  0  0  0  0  0  0  0  0  0
   -2.7589   -5.5943    4.6851 N   0  0  0  0  0  0  0  0  0  0  0  0
   -2.0925   -6.0303    5.9148 C   0  0  0  0  0  0  0  0  0  0  0  0
   -3.1430   -6.3216    6.9883 C   0  0  0  0  0  0  0  0  0  0  0  0
   -2.4748   -6.7588    8.2214 N   0  0  0  0  0  0  0  0  0  0  0  0
   -1.8113   -8.0566    8.0294 C   0  0  0  0  0  0  0  0  0  0  0  0
   -1.0796   -8.4450    9.3169 C   0  0  0  0  0  0  0  0  0  0  0  0
   -2.0125   -8.4689   10.4007 O   0  0  0  0  0  0  0  0  0  0  0  0
   -2.6767   -7.2208   10.6163 C   0  0  0  0  0  0  0  0  0  0  0  0
   -3.4245   -6.8200    9.3419 C   0  0  0  0  0  0  0  0  0  0  0  0
    1.0039    1.9031    0.0027 H   0  0  0  0  0  0  0  0  0  0  0  0
   -0.5459    1.8868   -0.8726 H   0  0  0  0  0  0  0  0  0  0  0  0
   -0.5289    1.8773    0.9072 H   0  0  0  0  0  0  0  0  0  0  0  0
    0.5123   -0.3556   -0.8948 H   0  0  0  0  0  0  0  0  0  0  0  0
    0.5293   -0.3651    0.8851 H   0  0  0  0  0  0  0  0  0  0  0  0
   -1.9435   -0.1821    0.9097 H   0  0  0  0  0  0  0  0  0  0  0  0
   -1.9605   -0.1726   -0.8702 H   0  0  0  0  0  0  0  0  0  0  0  0
   -3.2480   -2.2520    0.9110 H   0  0  0  0  0  0  0  0  0  0  0  0
   -3.2650   -2.2424   -0.8688 H   0  0  0  0  0  0  0  0  0  0  0  0
   -3.5564   -4.5409   -0.0779 H   0  0  0  0  0  0  0  0  0  0  0  0
   -1.9574   -4.3876   -0.8447 H   0  0  0  0  0  0  0  0  0  0  0  0
    1.9462   -5.4584    3.4771 H   0  0  0  0  0  0  0  0  0  0  0  0
    4.2438   -4.5177    0.1579 H   0  0  0  0  0  0  0  0  0  0  0  0
    5.5527   -3.9331   -1.8658 H   0  0  0  0  0  0  0  0  0  0  0  0
    0.6752   -3.5982   -2.0422 H   0  0  0  0  0  0  0  0  0  0  0  0
    4.4512   -2.4866   -6.0909 H   0  0  0  0  0  0  0  0  0  0  0  0
    3.0888   -3.5114   -5.5791 H   0  0  0  0  0  0  0  0  0  0  0  0
    3.1885   -1.8222   -5.0267 H   0  0  0  0  0  0  0  0  0  0  0  0
   -3.7263   -5.5313    4.6539 H   0  0  0  0  0  0  0  0  0  0  0  0
   -1.5166   -6.9340    5.7152 H   0  0  0  0  0  0  0  0  0  0  0  0
   -1.4242   -5.2434    6.2645 H   0  0  0  0  0  0  0  0  0  0  0  0
   -3.7189   -5.4179    7.1879 H   0  0  0  0  0  0  0  0  0  0  0  0
   -3.8113   -7.1085    6.6386 H   0  0  0  0  0  0  0  0  0  0  0  0
   -2.5571   -8.8150    7.7916 H   0  0  0  0  0  0  0  0  0  0  0  0
   -1.0943   -7.9813    7.2118 H   0  0  0  0  0  0  0  0  0  0  0  0
   -0.6339   -9.4326    9.1984 H   0  0  0  0  0  0  0  0  0  0  0  0
   -0.2978   -7.7147    9.5257 H   0  0  0  0  0  0  0  0  0  0  0  0
   -3.3859   -7.3231   11.4376 H   0  0  0  0  0  0  0  0  0  0  0  0
   -1.9413   -6.4550   10.8629 H   0  0  0  0  0  0  0  0  0  0  0  0
   -3.8851   -5.8422    9.4825 H   0  0  0  0  0  0  0  0  0  0  0  0
   -4.1961   -7.5587    9.1251 H   0  0  0  0  0  0  0  0  0  0  0  0
  1  2  1  0  0  0  0
  1 35  1  0  0  0  0
  1 36  1  0  0  0  0
  1 37  1  0  0  0  0
  2  3  1  0  0  0  0
  2 38  1  0  0  0  0
  2 39  1  0  0  0  0
  3  4  1  0  0  0  0
  3 40  1  0  0  0  0
  3 41  1  0  0  0  0
  4  5  1  0  0  0  0
  5  6  1  0  0  0  0
  5 42  1  0  0  0  0
  5 43  1  0  0  0  0
  6  7  1  0  0  0  0
  6 44  1  0  0  0  0
  6 45  1  0  0  0  0
  7 24  1  0  0  0  0
  7  8  1  0  0  0  0
  8 13  2  0  0  0  0
  8  9  1  0  0  0  0
  9 10  2  0  0  0  0
  9 22  1  0  0  0  0
 10 11  1  0  0  0  0
 10 46  1  0  0  0  0
 11 12  2  0  0  0  0
 12 13  1  0  0  0  0
 12 14  1  0  0  0  0
 14 19  2  0  0  0  0
 14 15  1  0  0  0  0
 15 16  2  0  0  0  0
 15 47  1  0  0  0  0
 16 17  1  0  0  0  0
 16 48  1  0  0  0  0
 17 18  2  0  0  0  0
 17 20  1  0  0  0  0
 18 19  1  0  0  0  0
 19 49  1  0  0  0  0
 20 21  1  0  0  0  0
 21 50  1  0  0  0  0
 21 51  1  0  0  0  0
 21 52  1  0  0  0  0
 22 23  2  0  0  0  0
 23 24  1  0  0  0  0
 23 26  1  0  0  0  0
 24 25  2  0  0  0  0
 26 27  1  0  0  0  0
 26 53  1  0  0  0  0
 27 28  1  0  0  0  0
 27 54  1  0  0  0  0
 27 55  1  0  0  0  0
 28 29  1  0  0  0  0
 28 56  1  0  0  0  0
 28 57  1  0  0  0  0
 29 34  1  0  0  0  0
 29 30  1  0  0  0  0
 30 31  1  0  0  0  0
 30 58  1  0  0  0  0
 30 59  1  0  0  0  0
 31 32  1  0  0  0  0
 31 60  1  0  0  0  0
 31 61  1  0  0  0  0
 32 33  1  0  0  0  0
 33 34  1  0  0  0  0
 33 62  1  0  0  0  0
 33 63  1  0  0  0  0
 34 64  1  0  0  0  0
 34 65  1  0  0  0  0
M  END
$$$$
CHEMBL550851
  -OEChem-07121202283D

 66 69  0     0  0  0  0  0  0999 V2000
   -0.0187    1.5258    0.0104 C   0  0  0  0  0  0  0  0  0  0  0  0
    0.0021   -0.0041    0.0020 C   0  0  0  0  0  0  0  0  0  0  0  0
    0.7421   -0.5109    1.2415 C   0  0  0  0  0  0  0  0  0  0  0  0
    0.7614   -1.9398    1.2337 O   0  0  0  0  0  0  0  0  0  0  0  0
    1.4328   -2.5181    2.3548 C   0  0  0  0  0  0  0  0  0  0  0  0
    1.3920   -4.0434    2.2424 C   0  0  0  0  0  0  0  0  0  0  0  0
    2.1607   -4.4673    1.0694 N   0  0  0  0  0  0  0  0  0  0  0  0
    1.5511   -4.5885   -0.1580 C   0  0  0  0  0  0  0  0  0  0  0  0
    2.2994   -4.9967   -1.2815 C   0  0  0  0  0  0  0  0  0  0  0  0
    1.6397   -5.1083   -2.5151 C   0  0  0  0  0  0  0  0  0  0  0  0
    0.3519   -4.8280   -2.5736 N   0  0  0  0  0  0  0  0  0  0  0  0
   -0.3202   -4.4460   -1.4925 C   0  0  0  0  0  0  0  0  0  0  0  0
    0.2590   -4.3262   -0.3061 N   0  0  0  0  0  0  0  0  0  0  0  0
   -1.7648   -4.1441   -1.6175 C   0  0  0  0  0  0  0  0  0  0  0  0
   -2.4116   -4.2654   -2.8539 C   0  0  0  0  0  0  0  0  0  0  0  0
   -3.7594   -3.9734   -2.9206 C   0  0  0  0  0  0  0  0  0  0  0  0
   -4.4256   -3.5718   -1.7677 C   0  0  0  0  0  0  0  0  0  0  0  0
   -3.7854   -3.4666   -0.6142 N   0  0  0  0  0  0  0  0  0  0  0  0
   -2.5013   -3.7410   -0.5057 C   0  0  0  0  0  0  0  0  0  0  0  0
   -5.7492   -3.2835   -1.8263 O   0  0  0  0  0  0  0  0  0  0  0  0
   -6.3790   -2.8764   -0.6100 C   0  0  0  0  0  0  0  0  0  0  0  0
    3.6123   -5.2728   -1.1740 N   0  0  0  0  0  0  0  0  0  0  0  0
    4.2263   -5.1681   -0.0215 C   0  0  0  0  0  0  0  0  0  0  0  0
    3.4799   -4.7396    1.1761 C   0  0  0  0  0  0  0  0  0  0  0  0
    4.0450   -4.6357    2.2489 O   0  0  0  0  0  0  0  0  0  0  0  0
    5.5768   -5.4559    0.0713 N   0  0  0  0  0  0  0  0  0  0  0  0
    6.3194   -5.8775   -1.1190 C   0  0  0  0  0  0  0  0  0  0  0  0
    7.7812   -6.1309   -0.7449 C   0  0  0  0  0  0  0  0  0  0  0  0
    8.5259   -6.5537   -1.9386 N   0  3  0  0  0  0  0  0  0  0  0  0
    8.0137   -7.8507   -2.4017 C   0  0  0  0  0  0  0  0  0  0  0  0
    8.7910   -8.2889   -3.6455 C   0  0  0  0  0  0  0  0  0  0  0  0
   10.1847   -8.3564   -3.3310 O   0  0  0  0  0  0  0  0  0  0  0  0
   10.7253   -7.1218   -2.8520 C   0  0  0  0  0  0  0  0  0  0  0  0
    9.9516   -6.6815   -1.6068 C   0  0  0  0  0  0  0  0  0  0  0  0
    1.0039    1.9031    0.0027 H   0  0  0  0  0  0  0  0  0  0  0  0
   -0.5459    1.8868   -0.8726 H   0  0  0  0  0  0  0  0  0  0  0  0
   -0.5289    1.8773    0.9072 H   0  0  0  0  0  0  0  0  0  0  0  0
   -1.0205   -0.3814    0.0098 H   0  0  0  0  0  0  0  0  0  0  0  0
    0.5123   -0.3556   -0.8948 H   0  0  0  0  0  0  0  0  0  0  0  0
    1.7647   -0.1336    1.2338 H   0  0  0  0  0  0  0  0  0  0  0  0
    0.2319   -0.1594    2.1383 H   0  0  0  0  0  0  0  0  0  0  0  0
    2.4697   -2.1825    2.3702 H   0  0  0  0  0  0  0  0  0  0  0  0
    0.9369   -2.2082    3.2747 H   0  0  0  0  0  0  0  0  0  0  0  0
    1.8250   -4.4856    3.1397 H   0  0  0  0  0  0  0  0  0  0  0  0
    0.3582   -4.3726    2.1376 H   0  0  0  0  0  0  0  0  0  0  0  0
    2.1763   -5.4174   -3.4000 H   0  0  0  0  0  0  0  0  0  0  0  0
   -1.8694   -4.5792   -3.7336 H   0  0  0  0  0  0  0  0  0  0  0  0
   -4.2903   -4.0556   -3.8575 H   0  0  0  0  0  0  0  0  0  0  0  0
   -2.0140   -3.6484    0.4537 H   0  0  0  0  0  0  0  0  0  0  0  0
   -5.8986   -1.9718   -0.2371 H   0  0  0  0  0  0  0  0  0  0  0  0
   -7.4343   -2.6769   -0.7963 H   0  0  0  0  0  0  0  0  0  0  0  0
   -6.2847   -3.6699    0.1314 H   0  0  0  0  0  0  0  0  0  0  0  0
    6.0316   -5.3784    0.9246 H   0  0  0  0  0  0  0  0  0  0  0  0
    5.8816   -6.7939   -1.5148 H   0  0  0  0  0  0  0  0  0  0  0  0
    6.2685   -5.0943   -1.8754 H   0  0  0  0  0  0  0  0  0  0  0  0
    8.2191   -5.2146   -0.3492 H   0  0  0  0  0  0  0  0  0  0  0  0
    7.8321   -6.9142    0.0114 H   0  0  0  0  0  0  0  0  0  0  0  0
    8.1393   -8.5936   -1.6140 H   0  0  0  0  0  0  0  0  0  0  0  0
    6.9561   -7.7570   -2.6482 H   0  0  0  0  0  0  0  0  0  0  0  0
    8.4421   -9.2707   -3.9656 H   0  0  0  0  0  0  0  0  0  0  0  0
    8.6331   -7.5668   -4.4465 H   0  0  0  0  0  0  0  0  0  0  0  0
   11.7764   -7.2590   -2.5980 H   0  0  0  0  0  0  0  0  0  0  0  0
   10.6336   -6.3598   -3.6259 H   0  0  0  0  0  0  0  0  0  0  0  0
   10.3326   -5.7198   -1.2632 H   0  0  0  0  0  0  0  0  0  0  0  0
   10.0765   -7.4248   -0.8194 H   0  0  0  0  0  0  0  0  0  0  0  0
    8.4105   -5.8663   -2.6681 H   0  0  0  0  0  0  0  0  0  0  0  0
  1  2  1  0  0  0  0
  1 35  1  0  0  0  0
  1 36  1  0  0  0  0
  1 37  1  0  0  0  0
  2  3  1  0  0  0  0
  2 38  1  0  0  0  0
  2 39  1  0  0  0  0
  3  4  1  0  0  0  0
  3 40  1  0  0  0  0
  3 41  1  0  0  0  0
  4  5  1  0  0  0  0
  5  6  1  0  0  0  0
  5 42  1  0  0  0  0
  5 43  1  0  0  0  0
  6  7  1  0  0  0  0
  6 44  1  0  0  0  0
  6 45  1  0  0  0  0
  7 24  1  0  0  0  0
  7  8  1  0  0  0  0
  8 13  2  0  0  0  0
  8  9  1  0  0  0  0
  9 10  2  0  0  0  0
  9 22  1  0  0  0  0
 10 11  1  0  0  0  0
 10 46  1  0  0  0  0
 11 12  2  0  0  0  0
 12 13  1  0  0  0  0
 12 14  1  0  0  0  0
 14 19  2  0  0  0  0
 14 15  1  0  0  0  0
 15 16  2  0  0  0  0
 15 47  1  0  0  0  0
 16 17  1  0  0  0  0
 16 48  1  0  0  0  0
 17 18  2  0  0  0  0
 17 20  1  0  0  0  0
 18 19  1  0  0  0  0
 19 49  1  0  0  0  0
 20 21  1  0  0  0  0
 21 50  1  0  0  0  0
 21 51  1  0  0  0  0
 21 52  1  0  0  0  0
 22 23  2  0  0  0  0
 23 24  1  0  0  0  0
 23 26  1  0  0  0  0
 24 25  2  0  0  0  0
 26 27  1  0  0  0  0
 26 53  1  0  0  0  0
 27 28  1  0  0  0  0
 27 54  1  0  0  0  0
 27 55  1  0  0  0  0
 28 29  1  0  0  0  0
 28 56  1  0  0  0  0
 28 57  1  0  0  0  0
 29 34  1  0  0  0  0
 29 30  1  0  0  0  0
 29 66  1  0  0  0  0
 30 31  1  0  0  0  0
 30 58  1  0  0  0  0
 30 59  1  0  0  0  0
 31 32  1  0  0  0  0
 31 60  1  0  0  0  0
 31 61  1  0  0  0  0
 32 33  1  0  0  0  0
 33 34  1  0  0  0  0
 33 62  1  0  0  0  0
 33 63  1  0  0  0  0
 34 64  1  0  0  0  0
 34 65  1  0  0  0  0
M  CHG  1  29   1
M  END
$$$$
CHEMBL33944
  -OEChem-07121202283D

 71 78  0     1  0  0  0  0  0999 V2000
   -0.2374    1.1659    0.2459 C   0  0  0  0  0  0  0  0  0  0  0  0
    0.8882    1.9729    0.2738 C   0  0  0  0  0  0  0  0  0  0  0  0
    2.1706    1.4540    0.2285 C   0  0  0  0  0  0  0  0  0  0  0  0
    2.2880    0.0677    0.1521 C   0  0  0  0  0  0  0  0  0  0  0  0
    1.1318   -0.7537    0.1227 C   0  0  0  0  0  0  0  0  0  0  0  0
   -0.1522   -0.2024    0.1707 C   0  0  0  0  0  0  0  0  0  0  0  0
    1.6121   -2.1181    0.0402 C   0  0  0  0  0  0  0  0  0  0  0  0
    2.9614   -2.0616    0.0242 C   0  0  0  0  0  0  0  0  0  0  0  0
    3.3740   -0.7575    0.0940 N   0  0  0  0  0  0  0  0  0  0  0  0
    4.2987   -0.4643    0.1011 H   0  0  0  0  0  0  0  0  0  0  0  0
    3.8472   -3.2835   -0.0649 C   0  0  2  0  0  0  0  0  0  0  0  0
    4.3051   -3.3376   -1.0526 H   0  0  0  0  0  0  0  0  0  0  0  0
    2.9920   -4.4687    0.1577 N   0  0  0  0  0  0  0  0  0  0  0  0
    1.7051   -4.5223   -0.5346 C   0  0  2  0  0  0  0  0  0  0  0  0
    1.8731   -4.3771   -1.6017 H   0  0  0  0  0  0  0  0  0  0  0  0
    0.8064   -3.3907   -0.0162 C   0  0  0  0  0  0  0  0  0  0  0  0
    1.0101   -5.8294   -0.3288 C   0  0  0  0  0  0  0  0  0  0  0  0
   -0.0244   -6.0235   -0.9313 O   0  0  0  0  0  0  0  0  0  0  0  0
    1.4547   -6.7945    0.4737 N   0  0  0  0  0  0  0  0  0  0  0  0
    2.6795   -6.6995    1.2504 C   0  0  0  0  0  0  0  0  0  0  0  0
    3.4213   -5.4330    0.9745 C   0  0  0  0  0  0  0  0  0  0  0  0
    4.4727   -5.2575    1.5530 O   0  0  0  0  0  0  0  0  0  0  0  0
    0.6634   -8.0228    0.5803 C   0  0  2  0  0  0  0  0  0  0  0  0
   -0.2290   -7.9523   -0.0416 H   0  0  0  0  0  0  0  0  0  0  0  0
    0.2720   -8.2829    2.0531 C   0  0  0  0  0  0  0  0  0  0  0  0
    0.4185   -9.8197    2.1843 C   0  0  0  0  0  0  0  0  0  0  0  0
    1.6128  -10.1194    1.3536 N   0  3  2  0  0  0  0  0  0  0  0  0
    1.5090   -9.2411    0.1653 C   0  0  0  0  0  0  0  0  0  0  0  0
    1.6027  -11.5296    0.9421 C   0  0  0  0  0  0  0  0  0  0  0  0
    1.7799  -12.4213    2.1727 C   0  0  0  0  0  0  0  0  0  0  0  0
    1.7694  -13.8900    1.7441 C   0  0  0  0  0  0  0  0  0  0  0  0
    0.6338  -14.7709    2.2689 C   0  0  0  0  0  0  0  0  0  0  0  0
    2.0513  -14.9416    2.8190 C   0  0  0  0  0  0  0  0  0  0  0  0
    4.9185   -3.2175    0.9929 C   0  0  0  0  0  0  0  0  0  0  0  0
    6.2447   -3.3922    0.6433 C   0  0  0  0  0  0  0  0  0  0  0  0
    7.2311   -3.3320    1.6099 C   0  0  0  0  0  0  0  0  0  0  0  0
    6.8923   -3.0967    2.9326 C   0  0  0  0  0  0  0  0  0  0  0  0
    5.5564   -2.9208    3.2847 C   0  0  0  0  0  0  0  0  0  0  0  0
    4.5737   -2.9767    2.3097 C   0  0  0  0  0  0  0  0  0  0  0  0
    5.4847   -2.7062    4.6308 O   0  0  0  0  0  0  0  0  0  0  0  0
    6.7454   -3.1578    5.1598 C   0  0  0  0  0  0  0  0  0  0  0  0
    7.6575   -2.9923    4.0581 O   0  0  0  0  0  0  0  0  0  0  0  0
   -1.2129    1.6275    0.2892 H   0  0  0  0  0  0  0  0  0  0  0  0
    0.7608    3.0438    0.3326 H   0  0  0  0  0  0  0  0  0  0  0  0
    3.0401    2.0942    0.2509 H   0  0  0  0  0  0  0  0  0  0  0  0
   -1.0354   -0.8236    0.1495 H   0  0  0  0  0  0  0  0  0  0  0  0
    0.4453   -3.6391    0.9818 H   0  0  0  0  0  0  0  0  0  0  0  0
   -0.0396   -3.2579   -0.6905 H   0  0  0  0  0  0  0  0  0  0  0  0
    2.4316   -6.7519    2.3105 H   0  0  0  0  0  0  0  0  0  0  0  0
    3.3254   -7.5403    0.9974 H   0  0  0  0  0  0  0  0  0  0  0  0
    0.9559   -7.7710    2.7301 H   0  0  0  0  0  0  0  0  0  0  0  0
   -0.7575   -7.9764    2.2385 H   0  0  0  0  0  0  0  0  0  0  0  0
    0.5914  -10.1024    3.2227 H   0  0  0  0  0  0  0  0  0  0  0  0
   -0.4622  -10.3254    1.7884 H   0  0  0  0  0  0  0  0  0  0  0  0
    1.0187   -9.7732   -0.6498 H   0  0  0  0  0  0  0  0  0  0  0  0
    2.5021   -8.9156   -0.1444 H   0  0  0  0  0  0  0  0  0  0  0  0
    0.6528  -11.7605    0.4598 H   0  0  0  0  0  0  0  0  0  0  0  0
    2.4187  -11.7097    0.2423 H   0  0  0  0  0  0  0  0  0  0  0  0
    2.7298  -12.1903    2.6549 H   0  0  0  0  0  0  0  0  0  0  0  0
    0.9639  -12.2411    2.8725 H   0  0  0  0  0  0  0  0  0  0  0  0
    2.1366  -14.0885    0.7372 H   0  0  0  0  0  0  0  0  0  0  0  0
   -0.1057  -14.3041    2.9195 H   0  0  0  0  0  0  0  0  0  0  0  0
    0.2537  -15.5492    1.6072 H   0  0  0  0  0  0  0  0  0  0  0  0
    2.6036  -15.8322    2.5192 H   0  0  0  0  0  0  0  0  0  0  0  0
    2.2443  -14.5872    3.8315 H   0  0  0  0  0  0  0  0  0  0  0  0
    6.5106   -3.5765   -0.3871 H   0  0  0  0  0  0  0  0  0  0  0  0
    8.2662   -3.4689    1.3340 H   0  0  0  0  0  0  0  0  0  0  0  0
    3.5373   -2.8361    2.5792 H   0  0  0  0  0  0  0  0  0  0  0  0
    7.0495   -2.5402    6.0049 H   0  0  0  0  0  0  0  0  0  0  0  0
    6.6845   -4.2060    5.4525 H   0  0  0  0  0  0  0  0  0  0  0  0
    2.4555   -9.9118    1.8681 H   0  0  0  0  0  0  0  0  0  0  0  0
  1  6  2  0  0  0  0
  1  2  1  0  0  0  0
  1 43  1  0  0  0  0
  2  3  2  0  0  0  0
  2 44  1  0  0  0  0
  3  4  1  0  0  0  0
  3 45  1  0  0  0  0
  4  9  1  0  0  0  0
  4  5  2  0  0  0  0
  5  6  1  0  0  0  0
  5  7  1  0  0  0  0
  6 46  1  0  0  0  0
  7 16  1  0  0  0  0
  7  8  2  0  0  0  0
  8  9  1  0  0  0  0
  8 11  1  0  0  0  0
  9 10  1  0  0  0  0
 11 12  1  0  0  0  0
 11 13  1  0  0  0  0
 11 34  1  0  0  0  0
 13 21  1  0  0  0  0
 13 14  1  0  0  0  0
 14 15  1  0  0  0  0
 14 16  1  0  0  0  0
 14 17  1  0  0  0  0
 16 47  1  0  0  0  0
 16 48  1  0  0  0  0
 17 18  2  0  0  0  0
 17 19  1  0  0  0  0
 19 20  1  0  0  0  0
 19 23  1  0  0  0  0
 20 21  1  0  0  0  0
 20 49  1  0  0  0  0
 20 50  1  0  0  0  0
 21 22  2  0  0  0  0
 23 24  1  0  0  0  0
 23 28  1  0  0  0  0
 23 25  1  0  0  0  0
 25 26  1  0  0  0  0
 25 51  1  0  0  0  0
 25 52  1  0  0  0  0
 26 27  1  0  0  0  0
 26 53  1  0  0  0  0
 26 54  1  0  0  0  0
 27 28  1  0  0  0  0
 27 29  1  0  0  0  0
 27 71  1  0  0  0  0
 28 55  1  0  0  0  0
 28 56  1  0  0  0  0
 29 30  1  0  0  0  0
 29 57  1  0  0  0  0
 29 58  1  0  0  0  0
 30 31  1  0  0  0  0
 30 59  1  0  0  0  0
 30 60  1  0  0  0  0
 31 33  1  0  0  0  0
 31 32  1  0  0  0  0
 31 61  1  0  0  0  0
 32 33  1  0  0  0  0
 32 62  1  0  0  0  0
 32 63  1  0  0  0  0
 33 64  1  0  0  0  0
 33 65  1  0  0  0  0
 34 39  2  0  0  0  0
 34 35  1  0  0  0  0
 35 36  2  0  0  0  0
 35 66  1  0  0  0  0
 36 37  1  0  0  0  0
 36 67  1  0  0  0  0
 37 42  1  0  0  0  0
 37 38  2  0  0  0  0
 38 39  1  0  0  0  0
 38 40  1  0  0  0  0
 39 68  1  0  0  0  0
 40 41  1  0  0  0  0
 41 42  1  0  0  0  0
 41 69  1  0  0  0  0
 41 70  1  0  0  0  0
M  CHG  1  27   1
M  END
$$$$
CHEMBL551052
  -OEChem-07121202283D

 66 69  0     0  0  0  0  0  0999 V2000
   -0.0187    1.5258    0.0104 C   0  0  0  0  0  0  0  0  0  0  0  0
    0.0021   -0.0041    0.0020 C   0  0  0  0  0  0  0  0  0  0  0  0
    0.7421   -0.5109    1.2415 C   0  0  0  0  0  0  0  0  0  0  0  0
    0.7614   -1.9398    1.2337 O   0  0  0  0  0  0  0  0  0  0  0  0
    1.4328   -2.5181    2.3548 C   0  0  0  0  0  0  0  0  0  0  0  0
    1.3920   -4.0434    2.2424 C   0  0  0  0  0  0  0  0  0  0  0  0
    2.1607   -4.4673    1.0694 N   0  0  0  0  0  0  0  0  0  0  0  0
    1.5510   -4.5892   -0.1616 C   0  0  0  0  0  0  0  0  0  0  0  0
    0.1975   -4.3144   -0.3216 C   0  0  0  0  0  0  0  0  0  0  0  0
   -0.3697   -4.4521   -1.5835 C   0  0  0  0  0  0  0  0  0  0  0  0
    0.3610   -4.8398   -2.6260 N   0  0  0  0  0  0  0  0  0  0  0  0
    1.6422   -5.1100   -2.5225 C   0  0  0  0  0  0  0  0  0  0  0  0
    2.2949   -4.9969   -1.2870 C   0  0  0  0  0  0  0  0  0  0  0  0
    3.6091   -5.2728   -1.1770 N   0  0  0  0  0  0  0  0  0  0  0  0
    4.2233   -5.1687   -0.0254 C   0  0  0  0  0  0  0  0  0  0  0  0
    3.4806   -4.7400    1.1747 C   0  0  0  0  0  0  0  0  0  0  0  0
    4.0478   -4.6369    2.2465 O   0  0  0  0  0  0  0  0  0  0  0  0
    5.5736   -5.4569    0.0651 N   0  0  0  0  0  0  0  0  0  0  0  0
    6.3142   -5.8779   -1.1267 C   0  0  0  0  0  0  0  0  0  0  0  0
    7.7765   -6.1320   -0.7552 C   0  0  0  0  0  0  0  0  0  0  0  0
    8.5191   -6.5542   -1.9502 N   0  0  0  0  0  0  0  0  0  0  0  0
    8.0528   -7.8652   -2.4246 C   0  0  0  0  0  0  0  0  0  0  0  0
    8.8095   -8.2384   -3.7021 C   0  0  0  0  0  0  0  0  0  0  0  0
   10.2150   -8.2268   -3.4382 O   0  0  0  0  0  0  0  0  0  0  0  0
   10.7034   -6.9650   -2.9750 C   0  0  0  0  0  0  0  0  0  0  0  0
    9.9659   -6.5788   -1.6901 C   0  0  0  0  0  0  0  0  0  0  0  0
   -1.8112   -4.1630   -1.7704 C   0  0  0  0  0  0  0  0  0  0  0  0
   -2.4287   -4.3995   -3.0045 C   0  0  0  0  0  0  0  0  0  0  0  0
   -3.7741   -4.1144   -3.1305 C   0  0  0  0  0  0  0  0  0  0  0  0
   -4.4661   -3.6060   -2.0368 C   0  0  0  0  0  0  0  0  0  0  0  0
   -3.8530   -3.3932   -0.8837 N   0  0  0  0  0  0  0  0  0  0  0  0
   -2.5724   -3.6574   -0.7194 C   0  0  0  0  0  0  0  0  0  0  0  0
   -5.7875   -3.3239   -2.1537 O   0  0  0  0  0  0  0  0  0  0  0  0
   -6.4447   -2.8039   -0.9962 C   0  0  0  0  0  0  0  0  0  0  0  0
    1.0039    1.9031    0.0027 H   0  0  0  0  0  0  0  0  0  0  0  0
   -0.5459    1.8868   -0.8726 H   0  0  0  0  0  0  0  0  0  0  0  0
   -0.5289    1.8773    0.9072 H   0  0  0  0  0  0  0  0  0  0  0  0
   -1.0205   -0.3814    0.0098 H   0  0  0  0  0  0  0  0  0  0  0  0
    0.5123   -0.3556   -0.8948 H   0  0  0  0  0  0  0  0  0  0  0  0
    1.7647   -0.1336    1.2338 H   0  0  0  0  0  0  0  0  0  0  0  0
    0.2319   -0.1594    2.1383 H   0  0  0  0  0  0  0  0  0  0  0  0
    2.4697   -2.1825    2.3702 H   0  0  0  0  0  0  0  0  0  0  0  0
    0.9369   -2.2082    3.2747 H   0  0  0  0  0  0  0  0  0  0  0  0
    1.8250   -4.4856    3.1397 H   0  0  0  0  0  0  0  0  0  0  0  0
    0.3582   -4.3726    2.1376 H   0  0  0  0  0  0  0  0  0  0  0  0
   -0.4026   -4.0000    0.5194 H   0  0  0  0  0  0  0  0  0  0  0  0
    2.1967   -5.4219   -3.3952 H   0  0  0  0  0  0  0  0  0  0  0  0
    6.0298   -5.3802    0.9177 H   0  0  0  0  0  0  0  0  0  0  0  0
    5.8754   -6.7938   -1.5225 H   0  0  0  0  0  0  0  0  0  0  0  0
    6.2623   -5.0941   -1.8824 H   0  0  0  0  0  0  0  0  0  0  0  0
    8.2153   -5.2161   -0.3594 H   0  0  0  0  0  0  0  0  0  0  0  0
    7.8284   -6.9158    0.0006 H   0  0  0  0  0  0  0  0  0  0  0  0
    8.2396   -8.6172   -1.6580 H   0  0  0  0  0  0  0  0  0  0  0  0
    6.9844   -7.8170   -2.6353 H   0  0  0  0  0  0  0  0  0  0  0  0
    8.5082   -9.2347   -4.0257 H   0  0  0  0  0  0  0  0  0  0  0  0
    8.5802   -7.5158   -4.4852 H   0  0  0  0  0  0  0  0  0  0  0  0
   11.7719   -7.0402   -2.7727 H   0  0  0  0  0  0  0  0  0  0  0  0
   10.5292   -6.2053   -3.7370 H   0  0  0  0  0  0  0  0  0  0  0  0
   10.2940   -5.5916   -1.3647 H   0  0  0  0  0  0  0  0  0  0  0  0
   10.1833   -7.3103   -0.9118 H   0  0  0  0  0  0  0  0  0  0  0  0
   -1.8666   -4.7949   -3.8377 H   0  0  0  0  0  0  0  0  0  0  0  0
   -4.2829   -4.2841   -4.0679 H   0  0  0  0  0  0  0  0  0  0  0  0
   -2.1076   -3.4757    0.2383 H   0  0  0  0  0  0  0  0  0  0  0  0
   -5.9707   -1.8685   -0.6987 H   0  0  0  0  0  0  0  0  0  0  0  0
   -7.4947   -2.6223   -1.2255 H   0  0  0  0  0  0  0  0  0  0  0  0
   -6.3700   -3.5242   -0.1816 H   0  0  0  0  0  0  0  0  0  0  0  0
  1  2  1  0  0  0  0
  1 35  1  0  0  0  0
  1 36  1  0  0  0  0
  1 37  1  0  0  0  0
  2  3  1  0  0  0  0
  2 38  1  0  0  0  0
  2 39  1  0  0  0  0
  3  4  1  0  0  0  0
  3 40  1  0  0  0  0
  3 41  1  0  0  0  0
  4  5  1  0  0  0  0
  5  6  1  0  0  0  0
  5 42  1  0  0  0  0
  5 43  1  0  0  0  0
  6  7  1  0  0  0  0
  6 44  1  0  0  0  0
  6 45  1  0  0  0  0
  7 16  1  0  0  0  0
  7  8  1  0  0  0  0
  8 13  2  0  0  0  0
  8  9  1  0  0  0  0
  9 10  2  0  0  0  0
  9 46  1  0  0  0  0
 10 11  1  0  0  0  0
 10 27  1  0  0  0  0
 11 12  2  0  0  0  0
 12 13  1  0  0  0  0
 12 47  1  0  0  0  0
 13 14  1  0  0  0  0
 14 15  2  0  0  0  0
 15 16  1  0  0  0  0
 15 18  1  0  0  0  0
 16 17  2  0  0  0  0
 18 19  1  0  0  0  0
 18 48  1  0  0  0  0
 19 20  1  0  0  0  0
 19 49  1  0  0  0  0
 19 50  1  0  0  0  0
 20 21  1  0  0  0  0
 20 51  1  0  0  0  0
 20 52  1  0  0  0  0
 21 26  1  0  0  0  0
 21 22  1  0  0  0  0
 22 23  1  0  0  0  0
 22 53  1  0  0  0  0
 22 54  1  0  0  0  0
 23 24  1  0  0  0  0
 23 55  1  0  0  0  0
 23 56  1  0  0  0  0
 24 25  1  0  0  0  0
 25 26  1  0  0  0  0
 25 57  1  0  0  0  0
 25 58  1  0  0  0  0
 26 59  1  0  0  0  0
 26 60  1  0  0  0  0
 27 32  2  0  0  0  0
 27 28  1  0  0  0  0
 28 29  2  0  0  0  0
 28 61  1  0  0  0  0
 29 30  1  0  0  0  0
 29 62  1  0  0  0  0
 30 31  2  0  0  0  0
 30 33  1  0  0  0  0
 31 32  1  0  0  0  0
 32 63  1  0  0  0  0
 33 34  1  0  0  0  0
 34 64  1  0  0  0  0
 34 65  1  0  0  0  0
 34 66  1  0  0  0  0
M  END
$$$$
CHEMBL551052
  -OEChem-07121202283D

 67 70  0     0  0  0  0  0  0999 V2000
   -0.0187    1.5258    0.0104 C   0  0  0  0  0  0  0  0  0  0  0  0
    0.0021   -0.0041    0.0020 C   0  0  0  0  0  0  0  0  0  0  0  0
   -1.4333   -0.5336    0.0129 C   0  0  0  0  0  0  0  0  0  0  0  0
   -1.4139   -1.9625    0.0050 O   0  0  0  0  0  0  0  0  0  0  0  0
   -2.7113   -2.5614    0.0142 C   0  0  0  0  0  0  0  0  0  0  0  0
   -2.5698   -4.0848    0.0047 C   0  0  0  0  0  0  0  0  0  0  0  0
   -1.9315   -4.5238    1.2481 N   0  0  0  0  0  0  0  0  0  0  0  0
   -0.5589   -4.6260    1.3332 C   0  0  0  0  0  0  0  0  0  0  0  0
    0.2518   -4.3168    0.2469 C   0  0  0  0  0  0  0  0  0  0  0  0
    1.6302   -4.4358    0.3839 C   0  0  0  0  0  0  0  0  0  0  0  0
    2.1740   -4.8381    1.5299 N   0  0  0  0  0  0  0  0  0  0  0  0
    1.4483   -5.1407    2.5821 C   0  0  0  0  0  0  0  0  0  0  0  0
    0.0504   -5.0484    2.5319 C   0  0  0  0  0  0  0  0  0  0  0  0
   -0.6973   -5.3575    3.6092 N   0  0  0  0  0  0  0  0  0  0  0  0
   -2.0032   -5.2729    3.5673 C   0  0  0  0  0  0  0  0  0  0  0  0
   -2.6780   -4.8299    2.3328 C   0  0  0  0  0  0  0  0  0  0  0  0
   -3.8913   -4.7448    2.2901 O   0  0  0  0  0  0  0  0  0  0  0  0
   -2.7519   -5.5952    4.6854 N   0  0  0  0  0  0  0  0  0  0  0  0
   -2.0832   -6.0305    5.9141 C   0  0  0  0  0  0  0  0  0  0  0  0
   -3.1318   -6.3226    6.9893 C   0  0  0  0  0  0  0  0  0  0  0  0
   -2.4613   -6.7590    8.2214 N   0  3  0  0  0  0  0  0  0  0  0  0
   -1.7834   -8.0407    7.9826 C   0  0  0  0  0  0  0  0  0  0  0  0
   -1.0855   -8.4931    9.2677 C   0  0  0  0  0  0  0  0  0  0  0  0
   -2.0515   -8.5973   10.3173 O   0  0  0  0  0  0  0  0  0  0  0  0
   -2.7563   -7.3789   10.5716 C   0  0  0  0  0  0  0  0  0  0  0  0
   -3.4573   -6.9244    9.2890 C   0  0  0  0  0  0  0  0  0  0  0  0
    2.5080   -4.1099   -0.7649 C   0  0  0  0  0  0  0  0  0  0  0  0
    3.8891   -4.3266   -0.6873 C   0  0  0  0  0  0  0  0  0  0  0  0
    4.6661   -4.0074   -1.7835 C   0  0  0  0  0  0  0  0  0  0  0  0
    4.0567   -3.4855   -2.9193 C   0  0  0  0  0  0  0  0  0  0  0  0
    2.7484   -3.2923   -2.9607 N   0  0  0  0  0  0  0  0  0  0  0  0
    1.9703   -3.5891   -1.9394 C   0  0  0  0  0  0  0  0  0  0  0  0
    4.8139   -3.1699   -3.9993 O   0  0  0  0  0  0  0  0  0  0  0  0
    4.1318   -2.6377   -5.1366 C   0  0  0  0  0  0  0  0  0  0  0  0
    1.0039    1.9031    0.0027 H   0  0  0  0  0  0  0  0  0  0  0  0
   -0.5459    1.8868   -0.8726 H   0  0  0  0  0  0  0  0  0  0  0  0
   -0.5289    1.8773    0.9072 H   0  0  0  0  0  0  0  0  0  0  0  0
    0.5123   -0.3556   -0.8948 H   0  0  0  0  0  0  0  0  0  0  0  0
    0.5293   -0.3651    0.8851 H   0  0  0  0  0  0  0  0  0  0  0  0
   -1.9435   -0.1821    0.9097 H   0  0  0  0  0  0  0  0  0  0  0  0
   -1.9605   -0.1726   -0.8702 H   0  0  0  0  0  0  0  0  0  0  0  0
   -3.2480   -2.2520    0.9110 H   0  0  0  0  0  0  0  0  0  0  0  0
   -3.2650   -2.2424   -0.8688 H   0  0  0  0  0  0  0  0  0  0  0  0
   -3.5564   -4.5409   -0.0779 H   0  0  0  0  0  0  0  0  0  0  0  0
   -1.9574   -4.3876   -0.8447 H   0  0  0  0  0  0  0  0  0  0  0  0
   -0.1815   -3.9904   -0.6869 H   0  0  0  0  0  0  0  0  0  0  0  0
    1.9320   -5.4634    3.4923 H   0  0  0  0  0  0  0  0  0  0  0  0
   -3.7194   -5.5330    4.6557 H   0  0  0  0  0  0  0  0  0  0  0  0
   -1.5069   -6.9337    5.7137 H   0  0  0  0  0  0  0  0  0  0  0  0
   -1.4150   -5.2430    6.2627 H   0  0  0  0  0  0  0  0  0  0  0  0
   -3.7081   -5.4193    7.1897 H   0  0  0  0  0  0  0  0  0  0  0  0
   -3.8000   -7.1101    6.6408 H   0  0  0  0  0  0  0  0  0  0  0  0
   -2.5167   -8.7898    7.6840 H   0  0  0  0  0  0  0  0  0  0  0  0
   -1.0442   -7.9191    7.1908 H   0  0  0  0  0  0  0  0  0  0  0  0
   -0.6181   -9.4644    9.1054 H   0  0  0  0  0  0  0  0  0  0  0  0
   -0.3243   -7.7638    9.5446 H   0  0  0  0  0  0  0  0  0  0  0  0
   -3.4981   -7.5438   11.3530 H   0  0  0  0  0  0  0  0  0  0  0  0
   -2.0522   -6.6115   10.8932 H   0  0  0  0  0  0  0  0  0  0  0  0
   -3.9608   -5.9742    9.4670 H   0  0  0  0  0  0  0  0  0  0  0  0
   -4.1900   -7.6740    8.9898 H   0  0  0  0  0  0  0  0  0  0  0  0
    4.3359   -4.7330    0.2080 H   0  0  0  0  0  0  0  0  0  0  0  0
    5.7348   -4.1609   -1.7588 H   0  0  0  0  0  0  0  0  0  0  0  0
    0.9058   -3.4224   -2.0121 H   0  0  0  0  0  0  0  0  0  0  0  0
    4.8523   -2.4290   -5.9275 H   0  0  0  0  0  0  0  0  0  0  0  0
    3.4002   -3.3625   -5.4936 H   0  0  0  0  0  0  0  0  0  0  0  0
    3.6228   -1.7155   -4.8563 H   0  0  0  0  0  0  0  0  0  0  0  0
   -1.7827   -6.0658    8.4988 H   0  0  0  0  0  0  0  0  0  0  0  0
  1  2  1  0  0  0  0
  1 35  1  0  0  0  0
  1 36  1  0  0  0  0
  1 37  1  0  0  0  0
  2  3  1  0  0  0  0
  2 38  1  0  0  0  0
  2 39  1  0  0  0  0
  3  4  1  0  0  0  0
  3 40  1  0  0  0  0
  3 41  1  0  0  0  0
  4  5  1  0  0  0  0
  5  6  1  0  0  0  0
  5 42  1  0  0  0  0
  5 43  1  0  0  0  0
  6  7  1  0  0  0  0
  6 44  1  0  0  0  0
  6 45  1  0  0  0  0
  7 16  1  0  0  0  0
  7  8  1  0  0  0  0
  8 13  2  0  0  0  0
  8  9  1  0  0  0  0
  9 10  2  0  0  0  0
  9 46  1  0  0  0  0
 10 11  1  0  0  0  0
 10 27  1  0  0  0  0
 11 12  2  0  0  0  0
 12 13  1  0  0  0  0
 12 47  1  0  0  0  0
 13 14  1  0  0  0  0
 14 15  2  0  0  0  0
 15 16  1  0  0  0  0
 15 18  1  0  0  0  0
 16 17  2  0  0  0  0
 18 19  1  0  0  0  0
 18 48  1  0  0  0  0
 19 20  1  0  0  0  0
 19 49  1  0  0  0  0
 19 50  1  0  0  0  0
 20 21  1  0  0  0  0
 20 51  1  0  0  0  0
 20 52  1  0  0  0  0
 21 26  1  0  0  0  0
 21 22  1  0  0  0  0
 21 67  1  0  0  0  0
 22 23  1  0  0  0  0
 22 53  1  0  0  0  0
 22 54  1  0  0  0  0
 23 24  1  0  0  0  0
 23 55  1  0  0  0  0
 23 56  1  0  0  0  0
 24 25  1  0  0  0  0
 25 26  1  0  0  0  0
 25 57  1  0  0  0  0
 25 58  1  0  0  0  0
 26 59  1  0  0  0  0
 26 60  1  0  0  0  0
 27 32  2  0  0  0  0
 27 28  1  0  0  0  0
 28 29  2  0  0  0  0
 28 61  1  0  0  0  0
 29 30  1  0  0  0  0
 29 62  1  0  0  0  0
 30 31  2  0  0  0  0
 30 33  1  0  0  0  0
 31 32  1  0  0  0  0
 32 63  1  0  0  0  0
 33 34  1  0  0  0  0
 34 64  1  0  0  0  0
 34 65  1  0  0  0  0
 34 66  1  0  0  0  0
M  CHG  1  21   1
M  END
$$$$
CHEMBL557266
  -OEChem-07121202283D

 44 47  0     0  0  0  0  0  0999 V2000
   -0.0173    1.4248    0.0099 C   0  0  0  0  0  0  0  0  0  0  0  0
    0.0021   -0.0041    0.0020 O   0  0  0  0  0  0  0  0  0  0  0  0
   -1.2003   -0.6375    0.0101 C   0  0  0  0  0  0  0  0  0  0  0  0
   -2.3746    0.1011    0.0195 C   0  0  0  0  0  0  0  0  0  0  0  0
   -3.5956   -0.5451    0.0272 C   0  0  0  0  0  0  0  0  0  0  0  0
   -3.6478   -1.9268    0.0260 C   0  0  0  0  0  0  0  0  0  0  0  0
   -2.4788   -2.6651    0.0172 C   0  0  0  0  0  0  0  0  0  0  0  0
   -1.2554   -2.0237    0.0032 C   0  0  0  0  0  0  0  0  0  0  0  0
   -4.9811   -2.6292    0.0350 C   0  0  0  0  0  0  0  0  0  0  0  0
   -5.4232   -2.8552   -1.3433 N   0  0  0  0  0  0  0  0  0  0  0  0
   -6.1638   -1.9200   -1.9633 C   0  0  0  0  0  0  0  0  0  0  0  0
   -6.4540   -0.8987   -1.3647 O   0  0  0  0  0  0  0  0  0  0  0  0
   -6.6131   -2.0911   -3.2903 C   0  0  0  0  0  0  0  0  0  0  0  0
   -6.3030   -3.2189   -3.9769 C   0  0  0  0  0  0  0  0  0  0  0  0
   -5.4976   -4.2442   -3.3116 C   0  0  0  0  0  0  0  0  0  0  0  0
   -5.0689   -4.0222   -1.9881 C   0  0  0  0  0  0  0  0  0  0  0  0
   -4.2997   -4.9843   -1.3475 C   0  0  0  0  0  0  0  0  0  0  0  0
   -3.9574   -6.1514   -2.0205 C   0  0  0  0  0  0  0  0  0  0  0  0
   -4.3826   -6.3604   -3.3367 C   0  0  0  0  0  0  0  0  0  0  0  0
   -5.1483   -5.4279   -3.9722 C   0  0  0  0  0  0  0  0  0  0  0  0
   -3.1359   -7.1810   -1.3390 C   0  0  0  0  0  0  0  0  0  0  0  0
   -2.7030   -6.9986   -0.0223 C   0  0  0  0  0  0  0  0  0  0  0  0
   -1.9408   -7.9822    0.5740 C   0  0  0  0  0  0  0  0  0  0  0  0
   -1.6204   -9.0813   -0.0814 N   0  0  0  0  0  0  0  0  0  0  0  0
   -2.0084   -9.2925   -1.3244 C   0  0  0  0  0  0  0  0  0  0  0  0
   -2.7781   -8.3633   -1.9938 C   0  0  0  0  0  0  0  0  0  0  0  0
    1.0053    1.8021    0.0021 H   0  0  0  0  0  0  0  0  0  0  0  0
   -0.5445    1.7859   -0.8732 H   0  0  0  0  0  0  0  0  0  0  0  0
   -0.5275    1.7763    0.9067 H   0  0  0  0  0  0  0  0  0  0  0  0
   -2.3343    1.1803    0.0211 H   0  0  0  0  0  0  0  0  0  0  0  0
   -4.5101    0.0294    0.0345 H   0  0  0  0  0  0  0  0  0  0  0  0
   -2.5223   -3.7443    0.0166 H   0  0  0  0  0  0  0  0  0  0  0  0
   -0.3427   -2.6008   -0.0082 H   0  0  0  0  0  0  0  0  0  0  0  0
   -4.8840   -3.5865    0.5470 H   0  0  0  0  0  0  0  0  0  0  0  0
   -5.7136   -2.0117    0.5548 H   0  0  0  0  0  0  0  0  0  0  0  0
   -7.2066   -1.3210   -3.7607 H   0  0  0  0  0  0  0  0  0  0  0  0
   -6.6433   -3.3575   -4.9924 H   0  0  0  0  0  0  0  0  0  0  0  0
   -3.9688   -4.8266   -0.3316 H   0  0  0  0  0  0  0  0  0  0  0  0
   -4.1100   -7.2707   -3.8500 H   0  0  0  0  0  0  0  0  0  0  0  0
   -5.4730   -5.5962   -4.9884 H   0  0  0  0  0  0  0  0  0  0  0  0
   -2.9610   -6.1009    0.5200 H   0  0  0  0  0  0  0  0  0  0  0  0
   -1.6017   -7.8504    1.5909 H   0  0  0  0  0  0  0  0  0  0  0  0
   -1.7232  -10.2069   -1.8234 H   0  0  0  0  0  0  0  0  0  0  0  0
   -3.0959   -8.5447   -3.0100 H   0  0  0  0  0  0  0  0  0  0  0  0
  1  2  1  0  0  0  0
  1 27  1  0  0  0  0
  1 28  1  0  0  0  0
  1 29  1  0  0  0  0
  2  3  1  0  0  0  0
  3  8  2  0  0  0  0
  3  4  1  0  0  0  0
  4  5  2  0  0  0  0
  4 30  1  0  0  0  0
  5  6  1  0  0  0  0
  5 31  1  0  0  0  0
  6  7  2  0  0  0  0
  6  9  1  0  0  0  0
  7  8  1  0  0  0  0
  7 32  1  0  0  0  0
  8 33  1  0  0  0  0
  9 10  1  0  0  0  0
  9 34  1  0  0  0  0
  9 35  1  0  0  0  0
 10 16  1  0  0  0  0
 10 11  1  0  0  0  0
 11 12  2  0  0  0  0
 11 13  1  0  0  0  0
 13 14  2  0  0  0  0
 13 36  1  0  0  0  0
 14 15  1  0  0  0  0
 14 37  1  0  0  0  0
 15 20  2  0  0  0  0
 15 16  1  0  0  0  0
 16 17  2  0  0  0  0
 17 18  1  0  0  0  0
 17 38  1  0  0  0  0
 18 19  2  0  0  0  0
 18 21  1  0  0  0  0
 19 20  1  0  0  0  0
 19 39  1  0  0  0  0
 20 40  1  0  0  0  0
 21 26  2  0  0  0  0
 21 22  1  0  0  0  0
 22 23  2  0  0  0  0
 22 41  1  0  0  0  0
 23 24  1  0  0  0  0
 23 42  1  0  0  0  0
 24 25  2  0  0  0  0
 25 26  1  0  0  0  0
 25 43  1  0  0  0  0
 26 44  1  0  0  0  0
M  END
$$$$
CHEMBL274965
  -OEChem-07121202283D

 51 53  0     1  0  0  0  0  0999 V2000
   -0.0187    1.5258    0.0104 C   0  0  0  0  0  0  0  0  0  0  0  0
    0.0021   -0.0041    0.0020 C   0  0  0  0  0  0  0  0  0  0  0  0
   -1.4333   -0.5336    0.0129 C   0  0  0  0  0  0  0  0  0  0  0  0
   -1.4126   -2.0635    0.0045 C   0  0  0  0  0  0  0  0  0  0  0  0
   -2.8479   -2.5931    0.0153 C   0  0  0  0  0  0  0  0  0  0  0  0
   -2.8272   -4.1229    0.0069 C   0  0  0  0  0  0  0  0  0  0  0  0
   -4.2410   -4.6445    0.0176 C   0  0  0  0  0  0  0  0  0  0  0  0
   -5.1519   -4.3339    0.9042 N   0  0  0  0  0  0  0  0  0  0  0  0
   -4.2994   -5.8793   -1.6504 H   0  0  0  0  0  0  0  0  0  0  0  0
   -6.2938   -4.9683    0.6216 C   0  0  0  0  0  0  0  0  0  0  0  0
   -6.0727   -5.7242   -0.5203 C   0  0  0  0  0  0  0  0  0  0  0  0
   -4.7601   -5.4966   -0.8874 N   0  0  0  0  0  0  0  0  0  0  0  0
   -7.1231   -6.5043   -1.0478 C   0  0  0  0  0  0  0  0  0  0  0  0
   -6.9426   -7.1730   -2.0496 O   0  0  0  0  0  0  0  0  0  0  0  0
   -8.3238   -6.5085   -0.4425 N   0  0  0  0  0  0  0  0  0  0  0  0
   -8.5558   -5.7566    0.6995 C   0  0  0  0  0  0  0  0  0  0  0  0
   -9.6655   -5.6718    1.3812 N   0  3  0  0  0  0  0  0  0  0  0  0
   -9.5023   -4.7709    2.5259 C   0  0  1  0  0  0  0  0  0  0  0  0
   -9.6660   -5.3072    3.4606 H   0  0  0  0  0  0  0  0  0  0  0  0
   -8.0401   -4.2992    2.4230 C   0  0  0  0  0  0  0  0  0  0  0  0
   -7.5434   -4.9937    1.2229 N   0  0  0  0  0  0  0  0  0  0  0  0
  -10.4611   -3.5838    2.4151 C   0  0  0  0  0  0  0  0  0  0  0  0
  -11.9044   -4.0915    2.4227 C   0  0  0  0  0  0  0  0  0  0  0  0
  -10.2456   -2.6418    3.6014 C   0  0  0  0  0  0  0  0  0  0  0  0
   -9.4070   -7.3222   -0.9999 C   0  0  0  0  0  0  0  0  0  0  0  0
    1.0039    1.9031    0.0027 H   0  0  0  0  0  0  0  0  0  0  0  0
   -0.5459    1.8868   -0.8726 H   0  0  0  0  0  0  0  0  0  0  0  0
   -0.5289    1.8773    0.9072 H   0  0  0  0  0  0  0  0  0  0  0  0
    0.5123   -0.3556   -0.8948 H   0  0  0  0  0  0  0  0  0  0  0  0
    0.5293   -0.3651    0.8851 H   0  0  0  0  0  0  0  0  0  0  0  0
   -1.9435   -0.1821    0.9097 H   0  0  0  0  0  0  0  0  0  0  0  0
   -1.9605   -0.1726   -0.8702 H   0  0  0  0  0  0  0  0  0  0  0  0
   -0.9024   -2.4150   -0.8923 H   0  0  0  0  0  0  0  0  0  0  0  0
   -0.8854   -2.4246    0.8875 H   0  0  0  0  0  0  0  0  0  0  0  0
   -3.3581   -2.2415    0.9121 H   0  0  0  0  0  0  0  0  0  0  0  0
   -3.3751   -2.2320   -0.8677 H   0  0  0  0  0  0  0  0  0  0  0  0
   -2.3170   -4.4744   -0.8899 H   0  0  0  0  0  0  0  0  0  0  0  0
   -2.3000   -4.4840    0.8900 H   0  0  0  0  0  0  0  0  0  0  0  0
   -7.9933   -3.2185    2.2887 H   0  0  0  0  0  0  0  0  0  0  0  0
   -7.4752   -4.6029    3.3044 H   0  0  0  0  0  0  0  0  0  0  0  0
  -10.2695   -3.0474    1.4858 H   0  0  0  0  0  0  0  0  0  0  0  0
  -12.0960   -4.6278    3.3521 H   0  0  0  0  0  0  0  0  0  0  0  0
  -12.5875   -3.2457    2.3439 H   0  0  0  0  0  0  0  0  0  0  0  0
  -12.0580   -4.7625    1.5777 H   0  0  0  0  0  0  0  0  0  0  0  0
  -10.4372   -3.1781    4.5307 H   0  0  0  0  0  0  0  0  0  0  0  0
   -9.2174   -2.2801    3.5959 H   0  0  0  0  0  0  0  0  0  0  0  0
  -10.9287   -1.7960    3.5225 H   0  0  0  0  0  0  0  0  0  0  0  0
   -9.0505   -7.8417   -1.8893 H   0  0  0  0  0  0  0  0  0  0  0  0
   -9.7317   -8.0522   -0.2584 H   0  0  0  0  0  0  0  0  0  0  0  0
  -10.2449   -6.6781   -1.2667 H   0  0  0  0  0  0  0  0  0  0  0  0
  -10.4857   -6.1403    1.1604 H   0  0  0  0  0  0  0  0  0  0  0  0
  1  2  1  0  0  0  0
  1 26  1  0  0  0  0
  1 27  1  0  0  0  0
  1 28  1  0  0  0  0
  2  3  1  0  0  0  0
  2 29  1  0  0  0  0
  2 30  1  0  0  0  0
  3  4  1  0  0  0  0
  3 31  1  0  0  0  0
  3 32  1  0  0  0  0
  4  5  1  0  0  0  0
  4 33  1  0  0  0  0
  4 34  1  0  0  0  0
  5  6  1  0  0  0  0
  5 35  1  0  0  0  0
  5 36  1  0  0  0  0
  6 37  1  0  0  0  0
  6 38  1  0  0  0  0
  6  7  1  0  0  0  0
  7  8  2  0  0  0  0
  7 12  1  0  0  0  0
  8 10  1  0  0  0  0
  9 12  1  0  0  0  0
 10 21  1  0  0  0  0
 10 11  2  0  0  0  0
 11 13  1  0  0  0  0
 11 12  1  0  0  0  0
 13 14  2  0  0  0  0
 13 15  1  0  0  0  0
 15 16  1  0  0  0  0
 15 25  1  0  0  0  0
 16 21  1  0  0  0  0
 16 17  2  0  0  0  0
 17 18  1  0  0  0  0
 17 51  1  0  0  0  0
 18 19  1  0  0  0  0
 18 20  1  0  0  0  0
 18 22  1  0  0  0  0
 20 21  1  0  0  0  0
 20 39  1  0  0  0  0
 20 40  1  0  0  0  0
 22 23  1  0  0  0  0
 22 24  1  0  0  0  0
 22 41  1  0  0  0  0
 23 42  1  0  0  0  0
 23 43  1  0  0  0  0
 23 44  1  0  0  0  0
 24 45  1  0  0  0  0
 24 46  1  0  0  0  0
 24 47  1  0  0  0  0
 25 48  1  0  0  0  0
 25 49  1  0  0  0  0
 25 50  1  0  0  0  0
M  CHG  1  17   1
M  END
$$$$
CHEMBL274965
  -OEChem-07121202283D

 51 53  0     1  0  0  0  0  0999 V2000
   -0.0187    1.5258    0.0104 C   0  0  0  0  0  0  0  0  0  0  0  0
    0.0021   -0.0041    0.0020 C   0  0  0  0  0  0  0  0  0  0  0  0
   -1.4333   -0.5336    0.0129 C   0  0  0  0  0  0  0  0  0  0  0  0
   -1.4126   -2.0635    0.0045 C   0  0  0  0  0  0  0  0  0  0  0  0
   -2.8479   -2.5931    0.0153 C   0  0  0  0  0  0  0  0  0  0  0  0
   -2.8272   -4.1229    0.0069 C   0  0  0  0  0  0  0  0  0  0  0  0
   -4.2410   -4.6445    0.0176 C   0  0  0  0  0  0  0  0  0  0  0  0
   -4.7656   -5.5162   -0.8921 N   0  0  0  0  0  0  0  0  0  0  0  0
   -4.2994   -5.9041   -1.6492 H   0  0  0  0  0  0  0  0  0  0  0  0
   -6.0608   -5.7426   -0.5436 C   0  0  0  0  0  0  0  0  0  0  0  0
   -6.2986   -4.9868    0.5949 C   0  0  0  0  0  0  0  0  0  0  0  0
   -5.1480   -4.3374    0.8990 N   0  0  0  0  0  0  0  0  0  0  0  0
   -7.6297   -5.0362    1.2000 C   0  0  0  0  0  0  0  0  0  0  0  0
   -7.8776   -4.3868    2.1994 O   0  0  0  0  0  0  0  0  0  0  0  0
   -8.5762   -5.8087    0.6366 N   0  0  0  0  0  0  0  0  0  0  0  0
   -8.3138   -6.5556   -0.5022 C   0  0  0  0  0  0  0  0  0  0  0  0
   -9.1461   -7.3375   -1.1365 N   0  3  0  0  0  0  0  0  0  0  0  0
   -8.4965   -7.9543   -2.2960 C   0  0  1  0  0  0  0  0  0  0  0  0
   -9.0002   -7.6610   -3.2171 H   0  0  0  0  0  0  0  0  0  0  0  0
   -7.0634   -7.3930   -2.2623 C   0  0  0  0  0  0  0  0  0  0  0  0
   -7.0697   -6.5160   -1.0772 N   0  0  0  0  0  0  0  0  0  0  0  0
   -8.4825   -9.4778   -2.1556 C   0  0  0  0  0  0  0  0  0  0  0  0
   -9.9202   -9.9975   -2.0947 C   0  0  0  0  0  0  0  0  0  0  0  0
   -7.7678  -10.0944   -3.3598 C   0  0  0  0  0  0  0  0  0  0  0  0
   -9.9107   -5.8625    1.2385 C   0  0  0  0  0  0  0  0  0  0  0  0
    1.0039    1.9031    0.0027 H   0  0  0  0  0  0  0  0  0  0  0  0
   -0.5459    1.8868   -0.8726 H   0  0  0  0  0  0  0  0  0  0  0  0
   -0.5289    1.8773    0.9072 H   0  0  0  0  0  0  0  0  0  0  0  0
    0.5123   -0.3556   -0.8948 H   0  0  0  0  0  0  0  0  0  0  0  0
    0.5293   -0.3651    0.8851 H   0  0  0  0  0  0  0  0  0  0  0  0
   -1.9435   -0.1821    0.9097 H   0  0  0  0  0  0  0  0  0  0  0  0
   -1.9605   -0.1726   -0.8702 H   0  0  0  0  0  0  0  0  0  0  0  0
   -0.9024   -2.4150   -0.8923 H   0  0  0  0  0  0  0  0  0  0  0  0
   -0.8854   -2.4246    0.8875 H   0  0  0  0  0  0  0  0  0  0  0  0
   -3.3581   -2.2415    0.9121 H   0  0  0  0  0  0  0  0  0  0  0  0
   -3.3751   -2.2320   -0.8677 H   0  0  0  0  0  0  0  0  0  0  0  0
   -2.3170   -4.4744   -0.8899 H   0  0  0  0  0  0  0  0  0  0  0  0
   -2.3000   -4.4840    0.8900 H   0  0  0  0  0  0  0  0  0  0  0  0
   -6.3382   -8.1977   -2.1414 H   0  0  0  0  0  0  0  0  0  0  0  0
   -6.8544   -6.8181   -3.1645 H   0  0  0  0  0  0  0  0  0  0  0  0
   -7.9574   -9.7536   -1.2411 H   0  0  0  0  0  0  0  0  0  0  0  0
  -10.4453   -9.7218   -3.0092 H   0  0  0  0  0  0  0  0  0  0  0  0
   -9.9102  -11.0829   -1.9947 H   0  0  0  0  0  0  0  0  0  0  0  0
  -10.4293   -9.5583   -1.2369 H   0  0  0  0  0  0  0  0  0  0  0  0
   -8.2929   -9.8186   -4.2743 H   0  0  0  0  0  0  0  0  0  0  0  0
   -6.7436   -9.7241   -3.4032 H   0  0  0  0  0  0  0  0  0  0  0  0
   -7.7579  -11.1797   -3.2597 H   0  0  0  0  0  0  0  0  0  0  0  0
   -9.9385   -5.2201    2.1187 H   0  0  0  0  0  0  0  0  0  0  0  0
  -10.6499   -5.5192    0.5147 H   0  0  0  0  0  0  0  0  0  0  0  0
  -10.1368   -6.8882    1.5301 H   0  0  0  0  0  0  0  0  0  0  0  0
  -10.0679   -7.4892   -0.8754 H   0  0  0  0  0  0  0  0  0  0  0  0
  1  2  1  0  0  0  0
  1 26  1  0  0  0  0
  1 27  1  0  0  0  0
  1 28  1  0  0  0  0
  2  3  1  0  0  0  0
  2 29  1  0  0  0  0
  2 30  1  0  0  0  0
  3  4  1  0  0  0  0
  3 31  1  0  0  0  0
  3 32  1  0  0  0  0
  4  5  1  0  0  0  0
  4 33  1  0  0  0  0
  4 34  1  0  0  0  0
  5  6  1  0  0  0  0
  5 35  1  0  0  0  0
  5 36  1  0  0  0  0
  6  7  1  0  0  0  0
  6 37  1  0  0  0  0
  6 38  1  0  0  0  0
  7 12  2  0  0  0  0
  7  8  1  0  0  0  0
  8  9  1  0  0  0  0
  8 10  1  0  0  0  0
 10 21  1  0  0  0  0
 10 11  2  0  0  0  0
 11 12  1  0  0  0  0
 11 13  1  0  0  0  0
 13 14  2  0  0  0  0
 13 15  1  0  0  0  0
 15 16  1  0  0  0  0
 15 25  1  0  0  0  0
 16 21  1  0  0  0  0
 16 17  2  0  0  0  0
 17 18  1  0  0  0  0
 17 51  1  0  0  0  0
 18 19  1  0  0  0  0
 18 20  1  0  0  0  0
 18 22  1  0  0  0  0
 20 21  1  0  0  0  0
 20 39  1  0  0  0  0
 20 40  1  0  0  0  0
 22 23  1  0  0  0  0
 22 24  1  0  0  0  0
 22 41  1  0  0  0  0
 23 42  1  0  0  0  0
 23 43  1  0  0  0  0
 23 44  1  0  0  0  0
 24 45  1  0  0  0  0
 24 46  1  0  0  0  0
 24 47  1  0  0  0  0
 25 48  1  0  0  0  0
 25 49  1  0  0  0  0
 25 50  1  0  0  0  0
M  CHG  1  17   1
M  END
$$$$
CHEMBL274965
  -OEChem-07121202283D

 52 54  0     1  0  0  0  0  0999 V2000
   -0.0187    1.5258    0.0104 C   0  0  0  0  0  0  0  0  0  0  0  0
    0.0021   -0.0041    0.0020 C   0  0  0  0  0  0  0  0  0  0  0  0
   -1.4333   -0.5336    0.0129 C   0  0  0  0  0  0  0  0  0  0  0  0
   -1.4126   -2.0635    0.0045 C   0  0  0  0  0  0  0  0  0  0  0  0
   -2.8479   -2.5931    0.0153 C   0  0  0  0  0  0  0  0  0  0  0  0
   -2.8272   -4.1229    0.0069 C   0  0  0  0  0  0  0  0  0  0  0  0
   -4.2410   -4.6445    0.0176 C   0  0  0  0  0  0  0  0  0  0  0  0
   -4.9580   -4.8995   -1.0469 N   0  3  0  0  0  0  0  0  0  0  0  0
   -4.6594   -4.8278    2.0429 H   0  0  0  0  0  0  0  0  0  0  0  0
   -6.1635   -5.3483   -0.6841 C   0  0  0  0  0  0  0  0  0  0  0  0
   -6.1933   -5.3722    0.7025 C   0  0  0  0  0  0  0  0  0  0  0  0
   -4.9560   -4.9244    1.1244 N   0  0  0  0  0  0  0  0  0  0  0  0
   -7.3611   -5.8098    1.3621 C   0  0  0  0  0  0  0  0  0  0  0  0
   -7.4010   -5.8354    2.5791 O   0  0  0  0  0  0  0  0  0  0  0  0
   -8.4301   -6.1980    0.6447 N   0  0  0  0  0  0  0  0  0  0  0  0
   -8.4112   -6.1782   -0.7418 C   0  0  0  0  0  0  0  0  0  0  0  0
   -9.3729   -6.5251   -1.5531 N   0  3  0  0  0  0  0  0  0  0  0  0
   -8.9581   -6.3583   -2.9490 C   0  0  1  0  0  0  0  0  0  0  0  0
   -9.5977   -5.6342   -3.4538 H   0  0  0  0  0  0  0  0  0  0  0  0
   -7.5162   -5.8270   -2.8482 C   0  0  0  0  0  0  0  0  0  0  0  0
   -7.2824   -5.7551   -1.3958 N   0  0  0  0  0  0  0  0  0  0  0  0
   -8.9882   -7.7011   -3.6817 C   0  0  0  0  0  0  0  0  0  0  0  0
  -10.4162   -8.2502   -3.6816 C   0  0  0  0  0  0  0  0  0  0  0  0
   -8.5171   -7.5056   -5.1242 C   0  0  0  0  0  0  0  0  0  0  0  0
   -9.6370   -6.6509    1.3408 C   0  0  0  0  0  0  0  0  0  0  0  0
    1.0039    1.9031    0.0027 H   0  0  0  0  0  0  0  0  0  0  0  0
   -0.5459    1.8868   -0.8726 H   0  0  0  0  0  0  0  0  0  0  0  0
   -0.5289    1.8773    0.9072 H   0  0  0  0  0  0  0  0  0  0  0  0
    0.5123   -0.3556   -0.8948 H   0  0  0  0  0  0  0  0  0  0  0  0
    0.5293   -0.3651    0.8851 H   0  0  0  0  0  0  0  0  0  0  0  0
   -1.9435   -0.1821    0.9097 H   0  0  0  0  0  0  0  0  0  0  0  0
   -1.9605   -0.1726   -0.8702 H   0  0  0  0  0  0  0  0  0  0  0  0
   -0.9024   -2.4150   -0.8923 H   0  0  0  0  0  0  0  0  0  0  0  0
   -0.8854   -2.4246    0.8875 H   0  0  0  0  0  0  0  0  0  0  0  0
   -3.3581   -2.2415    0.9121 H   0  0  0  0  0  0  0  0  0  0  0  0
   -3.3751   -2.2320   -0.8677 H   0  0  0  0  0  0  0  0  0  0  0  0
   -2.3170   -4.4744   -0.8899 H   0  0  0  0  0  0  0  0  0  0  0  0
   -2.3000   -4.4840    0.8900 H   0  0  0  0  0  0  0  0  0  0  0  0
   -6.8174   -6.5204   -3.3162 H   0  0  0  0  0  0  0  0  0  0  0  0
   -7.4385   -4.8380   -3.2996 H   0  0  0  0  0  0  0  0  0  0  0  0
   -8.3279   -8.4057   -3.1762 H   0  0  0  0  0  0  0  0  0  0  0  0
  -11.0766   -7.5456   -4.1871 H   0  0  0  0  0  0  0  0  0  0  0  0
  -10.4377   -9.2069   -4.2036 H   0  0  0  0  0  0  0  0  0  0  0  0
  -10.7518   -8.3895   -2.6539 H   0  0  0  0  0  0  0  0  0  0  0  0
   -7.4998   -7.1144   -5.1243 H   0  0  0  0  0  0  0  0  0  0  0  0
   -8.5386   -8.4622   -5.6462 H   0  0  0  0  0  0  0  0  0  0  0  0
   -9.1774   -6.8010   -5.6298 H   0  0  0  0  0  0  0  0  0  0  0  0
   -9.4755   -6.6016    2.4176 H   0  0  0  0  0  0  0  0  0  0  0  0
  -10.4753   -6.0093    1.0694 H   0  0  0  0  0  0  0  0  0  0  0  0
   -9.8581   -7.6788    1.0533 H   0  0  0  0  0  0  0  0  0  0  0  0
  -10.2425   -6.8492   -1.2710 H   0  0  0  0  0  0  0  0  0  0  0  0
   -4.6593   -4.7807   -1.9621 H   0  0  0  0  0  0  0  0  0  0  0  0
  1  2  1  0  0  0  0
  1 26  1  0  0  0  0
  1 27  1  0  0  0  0
  1 28  1  0  0  0  0
  2  3  1  0  0  0  0
  2 29  1  0  0  0  0
  2 30  1  0  0  0  0
  3  4  1  0  0  0  0
  3 31  1  0  0  0  0
  3 32  1  0  0  0  0
  4  5  1  0  0  0  0
  4 33  1  0  0  0  0
  4 34  1  0  0  0  0
  5  6  1  0  0  0  0
  5 35  1  0  0  0  0
  5 36  1  0  0  0  0
  6 37  1  0  0  0  0
  6 38  1  0  0  0  0
  6  7  1  0  0  0  0
  7  8  2  0  0  0  0
  7 12  1  0  0  0  0
  8 10  1  0  0  0  0
  8 52  1  0  0  0  0
  9 12  1  0  0  0  0
 10 21  1  0  0  0  0
 10 11  2  0  0  0  0
 11 13  1  0  0  0  0
 11 12  1  0  0  0  0
 13 14  2  0  0  0  0
 13 15  1  0  0  0  0
 15 16  1  0  0  0  0
 15 25  1  0  0  0  0
 16 21  1  0  0  0  0
 16 17  2  0  0  0  0
 17 18  1  0  0  0  0
 17 51  1  0  0  0  0
 18 19  1  0  0  0  0
 18 20  1  0  0  0  0
 18 22  1  0  0  0  0
 20 21  1  0  0  0  0
 20 39  1  0  0  0  0
 20 40  1  0  0  0  0
 22 23  1  0  0  0  0
 22 24  1  0  0  0  0
 22 41  1  0  0  0  0
 23 42  1  0  0  0  0
 23 43  1  0  0  0  0
 23 44  1  0  0  0  0
 24 45  1  0  0  0  0
 24 46  1  0  0  0  0
 24 47  1  0  0  0  0
 25 48  1  0  0  0  0
 25 49  1  0  0  0  0
 25 50  1  0  0  0  0
M  CHG  2   8   1  17   1
M  END
$$$$
CHEMBL52141
  -OEChem-07121202283D

 47 50  0     0  0  0  0  0  0999 V2000
   -0.0187    1.5258    0.0104 C   0  0  0  0  0  0  0  0  0  0  0  0
    0.0021   -0.0041    0.0020 C   0  0  0  0  0  0  0  0  0  0  0  0
    0.7421   -0.5109    1.2415 C   0  0  0  0  0  0  0  0  0  0  0  0
    0.7625   -2.0177    1.2333 C   0  0  0  0  0  0  0  0  0  0  0  0
   -0.2150   -2.8548    1.8056 C   0  0  0  0  0  0  0  0  0  0  0  0
    0.1902   -4.1752    1.5714 C   0  0  0  0  0  0  0  0  0  0  0  0
   -0.6206   -5.2316    2.0475 C   0  0  0  0  0  0  0  0  0  0  0  0
   -0.3025   -6.3939    1.8644 O   0  0  0  0  0  0  0  0  0  0  0  0
   -1.7563   -4.9210    2.7109 N   0  0  0  0  0  0  0  0  0  0  0  0
   -2.3282   -5.6289    3.0467 H   0  0  0  0  0  0  0  0  0  0  0  0
   -2.1032   -3.6124    2.9116 C   0  0  0  0  0  0  0  0  0  0  0  0
   -1.3622   -2.6230    2.4750 N   0  0  0  0  0  0  0  0  0  0  0  0
   -3.3503   -3.3058    3.6401 C   0  0  0  0  0  0  0  0  0  0  0  0
   -4.1559   -4.3406    4.1193 C   0  0  0  0  0  0  0  0  0  0  0  0
   -5.3192   -4.0479    4.7987 C   0  0  0  0  0  0  0  0  0  0  0  0
   -5.6932   -2.7309    5.0080 C   0  0  0  0  0  0  0  0  0  0  0  0
   -4.9050   -1.6981    4.5390 C   0  0  0  0  0  0  0  0  0  0  0  0
   -3.7289   -1.9750    3.8592 C   0  0  0  0  0  0  0  0  0  0  0  0
   -2.9506   -0.9610    3.4028 O   0  0  0  0  0  0  0  0  0  0  0  0
   -3.4004    0.3701    3.6636 C   0  0  0  0  0  0  0  0  0  0  0  0
   -2.4013    1.3700    3.0781 C   0  0  0  0  0  0  0  0  0  0  0  0
   -1.6670    2.2897    4.0558 C   0  0  0  0  0  0  0  0  0  0  0  0
   -2.7632    2.8548    3.1503 C   0  0  0  0  0  0  0  0  0  0  0  0
    1.3696   -4.1140    0.8826 N   0  0  0  0  0  0  0  0  0  0  0  0
    1.6863   -2.7630    0.6895 N   0  0  0  0  0  0  0  0  0  0  0  0
    2.1603   -5.2589    0.4238 C   0  0  0  0  0  0  0  0  0  0  0  0
    1.0039    1.9031    0.0027 H   0  0  0  0  0  0  0  0  0  0  0  0
   -0.5459    1.8868   -0.8726 H   0  0  0  0  0  0  0  0  0  0  0  0
   -0.5289    1.8773    0.9072 H   0  0  0  0  0  0  0  0  0  0  0  0
   -1.0205   -0.3814    0.0098 H   0  0  0  0  0  0  0  0  0  0  0  0
    0.5123   -0.3556   -0.8948 H   0  0  0  0  0  0  0  0  0  0  0  0
    1.7647   -0.1336    1.2338 H   0  0  0  0  0  0  0  0  0  0  0  0
    0.2319   -0.1594    2.1383 H   0  0  0  0  0  0  0  0  0  0  0  0
   -3.8683   -5.3690    3.9577 H   0  0  0  0  0  0  0  0  0  0  0  0
   -5.9417   -4.8489    5.1690 H   0  0  0  0  0  0  0  0  0  0  0  0
   -6.6064   -2.5102    5.5406 H   0  0  0  0  0  0  0  0  0  0  0  0
   -5.2033   -0.6736    4.7056 H   0  0  0  0  0  0  0  0  0  0  0  0
   -4.3769    0.5203    3.2032 H   0  0  0  0  0  0  0  0  0  0  0  0
   -3.4788    0.5227    4.7400 H   0  0  0  0  0  0  0  0  0  0  0  0
   -1.8531    1.0276    2.2003 H   0  0  0  0  0  0  0  0  0  0  0  0
   -1.8957    2.1824    5.1161 H   0  0  0  0  0  0  0  0  0  0  0  0
   -0.6355    2.5525    3.8214 H   0  0  0  0  0  0  0  0  0  0  0  0
   -2.4528    3.4894    2.3202 H   0  0  0  0  0  0  0  0  0  0  0  0
   -3.7131    3.1193    3.6148 H   0  0  0  0  0  0  0  0  0  0  0  0
    1.8382   -5.5450   -0.5774 H   0  0  0  0  0  0  0  0  0  0  0  0
    3.2154   -4.9863    0.4020 H   0  0  0  0  0  0  0  0  0  0  0  0
    2.0155   -6.0970    1.1055 H   0  0  0  0  0  0  0  0  0  0  0  0
  1  2  1  0  0  0  0
  1 27  1  0  0  0  0
  1 28  1  0  0  0  0
  1 29  1  0  0  0  0
  2  3  1  0  0  0  0
  2 30  1  0  0  0  0
  2 31  1  0  0  0  0
  3  4  1  0  0  0  0
  3 32  1  0  0  0  0
  3 33  1  0  0  0  0
  4 25  2  0  0  0  0
  4  5  1  0  0  0  0
  5 12  1  0  0  0  0
  5  6  2  0  0  0  0
  6  7  1  0  0  0  0
  6 24  1  0  0  0  0
  7  8  2  0  0  0  0
  7  9  1  0  0  0  0
  9 10  1  0  0  0  0
  9 11  1  0  0  0  0
 11 12  2  0  0  0  0
 11 13  1  0  0  0  0
 13 18  2  0  0  0  0
 13 14  1  0  0  0  0
 14 15  2  0  0  0  0
 14 34  1  0  0  0  0
 15 16  1  0  0  0  0
 15 35  1  0  0  0  0
 16 17  2  0  0  0  0
 16 36  1  0  0  0  0
 17 18  1  0  0  0  0
 17 37  1  0  0  0  0
 18 19  1  0  0  0  0
 19 20  1  0  0  0  0
 20 21  1  0  0  0  0
 20 38  1  0  0  0  0
 20 39  1  0  0  0  0
 21 23  1  0  0  0  0
 21 22  1  0  0  0  0
 21 40  1  0  0  0  0
 22 23  1  0  0  0  0
 22 41  1  0  0  0  0
 22 42  1  0  0  0  0
 23 43  1  0  0  0  0
 23 44  1  0  0  0  0
 24 25  1  0  0  0  0
 24 26  1  0  0  0  0
 26 45  1  0  0  0  0
 26 46  1  0  0  0  0
 26 47  1  0  0  0  0
M  END
$$$$
CHEMBL52141
  -OEChem-07121202283D

 47 50  0     0  0  0  0  0  0999 V2000
   -0.0187    1.5258    0.0104 C   0  0  0  0  0  0  0  0  0  0  0  0
    0.0021   -0.0041    0.0020 C   0  0  0  0  0  0  0  0  0  0  0  0
   -1.4333   -0.5336    0.0129 C   0  0  0  0  0  0  0  0  0  0  0  0
   -1.4129   -2.0405    0.0046 C   0  0  0  0  0  0  0  0  0  0  0  0
   -1.4071   -2.8493   -1.1371 C   0  0  0  0  0  0  0  0  0  0  0  0
   -1.3871   -4.1737   -0.7055 C   0  0  0  0  0  0  0  0  0  0  0  0
   -1.3778   -5.2332   -1.7158 C   0  0  0  0  0  0  0  0  0  0  0  0
   -1.3607   -6.4084   -1.3854 O   0  0  0  0  0  0  0  0  0  0  0  0
   -1.3888   -4.8868   -3.0129 N   0  0  0  0  0  0  0  0  0  0  0  0
   -1.4076   -3.6251   -3.3867 C   0  0  0  0  0  0  0  0  0  0  0  0
   -1.4171   -2.5975   -2.4964 N   0  0  0  0  0  0  0  0  0  0  0  0
   -1.4188   -3.3135   -4.8285 C   0  0  0  0  0  0  0  0  0  0  0  0
   -1.4330   -1.9848   -5.2600 C   0  0  0  0  0  0  0  0  0  0  0  0
   -1.4429   -1.7003   -6.6083 C   0  0  0  0  0  0  0  0  0  0  0  0
   -1.4394   -2.7264   -7.5391 C   0  0  0  0  0  0  0  0  0  0  0  0
   -1.4259   -4.0440   -7.1262 C   0  0  0  0  0  0  0  0  0  0  0  0
   -1.4095   -4.3485   -5.7734 C   0  0  0  0  0  0  0  0  0  0  0  0
   -1.3901   -5.6427   -5.3664 O   0  0  0  0  0  0  0  0  0  0  0  0
   -1.3816   -6.6435   -6.3863 C   0  0  0  0  0  0  0  0  0  0  0  0
   -1.3598   -8.0302   -5.7401 C   0  0  0  0  0  0  0  0  0  0  0  0
   -0.1333   -8.9088   -5.9941 C   0  0  0  0  0  0  0  0  0  0  0  0
   -1.4663   -9.2431   -6.6665 C   0  0  0  0  0  0  0  0  0  0  0  0
   -1.3812   -4.1503    0.6589 N   0  0  0  0  0  0  0  0  0  0  0  0
   -1.3919   -2.8081    1.0635 N   0  0  0  0  0  0  0  0  0  0  0  0
   -1.3621   -5.3186    1.5427 C   0  0  0  0  0  0  0  0  0  0  0  0
    1.0039    1.9031    0.0027 H   0  0  0  0  0  0  0  0  0  0  0  0
   -0.5459    1.8868   -0.8726 H   0  0  0  0  0  0  0  0  0  0  0  0
   -0.5289    1.8773    0.9072 H   0  0  0  0  0  0  0  0  0  0  0  0
    0.5123   -0.3556   -0.8948 H   0  0  0  0  0  0  0  0  0  0  0  0
    0.5293   -0.3651    0.8851 H   0  0  0  0  0  0  0  0  0  0  0  0
   -1.9435   -0.1821    0.9097 H   0  0  0  0  0  0  0  0  0  0  0  0
   -1.9605   -0.1726   -0.8702 H   0  0  0  0  0  0  0  0  0  0  0  0
   -1.4365   -1.1817   -4.5379 H   0  0  0  0  0  0  0  0  0  0  0  0
   -1.4539   -0.6729   -6.9409 H   0  0  0  0  0  0  0  0  0  0  0  0
   -1.4477   -2.4944   -8.5939 H   0  0  0  0  0  0  0  0  0  0  0  0
   -1.4240   -4.8384   -7.8579 H   0  0  0  0  0  0  0  0  0  0  0  0
   -2.2760   -6.5432   -7.0012 H   0  0  0  0  0  0  0  0  0  0  0  0
   -0.4962   -6.5193   -7.0099 H   0  0  0  0  0  0  0  0  0  0  0  0
   -1.8359   -8.1005   -4.7621 H   0  0  0  0  0  0  0  0  0  0  0  0
    0.6581   -8.4990   -6.6216 H   0  0  0  0  0  0  0  0  0  0  0  0
    0.1979   -9.5573   -5.1830 H   0  0  0  0  0  0  0  0  0  0  0  0
   -2.0121  -10.1116   -6.2979 H   0  0  0  0  0  0  0  0  0  0  0  0
   -1.5519   -9.0532   -7.7364 H   0  0  0  0  0  0  0  0  0  0  0  0
   -0.3297   -5.5950    1.7572 H   0  0  0  0  0  0  0  0  0  0  0  0
   -1.8748   -5.0782    2.4740 H   0  0  0  0  0  0  0  0  0  0  0  0
   -1.8673   -6.1519    1.0544 H   0  0  0  0  0  0  0  0  0  0  0  0
   -1.4310   -1.6821   -2.8169 H   0  0  0  0  0  0  0  0  0  0  0  0
  1  2  1  0  0  0  0
  1 26  1  0  0  0  0
  1 27  1  0  0  0  0
  1 28  1  0  0  0  0
  2  3  1  0  0  0  0
  2 29  1  0  0  0  0
  2 30  1  0  0  0  0
  3  4  1  0  0  0  0
  3 31  1  0  0  0  0
  3 32  1  0  0  0  0
  4 24  2  0  0  0  0
  4  5  1  0  0  0  0
  5 11  1  0  0  0  0
  5  6  2  0  0  0  0
  6  7  1  0  0  0  0
  6 23  1  0  0  0  0
  7  8  2  0  0  0  0
  7  9  1  0  0  0  0
  9 10  2  0  0  0  0
 10 11  1  0  0  0  0
 10 12  1  0  0  0  0
 11 47  1  0  0  0  0
 12 17  2  0  0  0  0
 12 13  1  0  0  0  0
 13 14  2  0  0  0  0
 13 33  1  0  0  0  0
 14 15  1  0  0  0  0
 14 34  1  0  0  0  0
 15 16  2  0  0  0  0
 15 35  1  0  0  0  0
 16 17  1  0  0  0  0
 16 36  1  0  0  0  0
 17 18  1  0  0  0  0
 18 19  1  0  0  0  0
 19 20  1  0  0  0  0
 19 37  1  0  0  0  0
 19 38  1  0  0  0  0
 20 22  1  0  0  0  0
 20 21  1  0  0  0  0
 20 39  1  0  0  0  0
 21 22  1  0  0  0  0
 21 40  1  0  0  0  0
 21 41  1  0  0  0  0
 22 42  1  0  0  0  0
 22 43  1  0  0  0  0
 23 24  1  0  0  0  0
 23 25  1  0  0  0  0
 25 44  1  0  0  0  0
 25 45  1  0  0  0  0
 25 46  1  0  0  0  0
M  END
$$$$
CHEMBL52141
  -OEChem-07121202283D

 46 49  0     0  0  0  0  0  0999 V2000
   -0.0187    1.5258    0.0104 C   0  0  0  0  0  0  0  0  0  0  0  0
    0.0021   -0.0041    0.0020 C   0  0  0  0  0  0  0  0  0  0  0  0
    0.7421   -0.5109    1.2415 C   0  0  0  0  0  0  0  0  0  0  0  0
    0.7625   -2.0177    1.2333 C   0  0  0  0  0  0  0  0  0  0  0  0
   -0.2174   -2.8570    1.8071 C   0  0  0  0  0  0  0  0  0  0  0  0
    0.1923   -4.1830    1.5712 C   0  0  0  0  0  0  0  0  0  0  0  0
   -0.6135   -5.2265    2.0444 C   0  0  0  0  0  0  0  0  0  0  0  0
   -0.2601   -6.5186    1.8419 O   0  5  0  0  0  0  0  0  0  0  0  0
   -1.7279   -4.9249    2.6943 N   0  0  0  0  0  0  0  0  0  0  0  0
   -2.0849   -3.6596    2.8995 C   0  0  0  0  0  0  0  0  0  0  0  0
   -1.3578   -2.6425    2.4719 N   0  0  0  0  0  0  0  0  0  0  0  0
   -3.3423   -3.3814    3.6330 C   0  0  0  0  0  0  0  0  0  0  0  0
   -3.7452   -2.0663    3.8582 C   0  0  0  0  0  0  0  0  0  0  0  0
   -4.9165   -1.8127    4.5415 C   0  0  0  0  0  0  0  0  0  0  0  0
   -5.6942   -2.8598    5.0050 C   0  0  0  0  0  0  0  0  0  0  0  0
   -5.3047   -4.1672    4.7876 C   0  0  0  0  0  0  0  0  0  0  0  0
   -4.1331   -4.4372    4.0974 C   0  0  0  0  0  0  0  0  0  0  0  0
   -3.7520   -5.7219    3.8780 O   0  0  0  0  0  0  0  0  0  0  0  0
   -4.6097   -6.7481    4.3815 C   0  0  0  0  0  0  0  0  0  0  0  0
   -4.0202   -8.1182    4.0407 C   0  0  0  0  0  0  0  0  0  0  0  0
   -4.8272   -9.0218    3.1062 C   0  0  0  0  0  0  0  0  0  0  0  0
   -4.7333   -9.3522    4.5971 C   0  0  0  0  0  0  0  0  0  0  0  0
    1.3733   -4.1142    0.8819 N   0  0  0  0  0  0  0  0  0  0  0  0
    1.6847   -2.7617    0.6904 N   0  0  0  0  0  0  0  0  0  0  0  0
    2.1690   -5.2546    0.4209 C   0  0  0  0  0  0  0  0  0  0  0  0
    1.0039    1.9031    0.0027 H   0  0  0  0  0  0  0  0  0  0  0  0
   -0.5459    1.8868   -0.8726 H   0  0  0  0  0  0  0  0  0  0  0  0
   -0.5289    1.8773    0.9072 H   0  0  0  0  0  0  0  0  0  0  0  0
   -1.0205   -0.3814    0.0098 H   0  0  0  0  0  0  0  0  0  0  0  0
    0.5123   -0.3556   -0.8948 H   0  0  0  0  0  0  0  0  0  0  0  0
    1.7647   -0.1336    1.2338 H   0  0  0  0  0  0  0  0  0  0  0  0
    0.2319   -0.1594    2.1383 H   0  0  0  0  0  0  0  0  0  0  0  0
   -3.1409   -1.2466    3.4984 H   0  0  0  0  0  0  0  0  0  0  0  0
   -5.2277   -0.7933    4.7158 H   0  0  0  0  0  0  0  0  0  0  0  0
   -6.6098   -2.6537    5.5394 H   0  0  0  0  0  0  0  0  0  0  0  0
   -5.9157   -4.9798    5.1520 H   0  0  0  0  0  0  0  0  0  0  0  0
   -4.6980   -6.6494    5.4634 H   0  0  0  0  0  0  0  0  0  0  0  0
   -5.5956   -6.6533    3.9263 H   0  0  0  0  0  0  0  0  0  0  0  0
   -2.9336   -8.1566    3.9641 H   0  0  0  0  0  0  0  0  0  0  0  0
   -5.7780   -8.6401    2.7342 H   0  0  0  0  0  0  0  0  0  0  0  0
   -4.2715   -9.6548    2.4144 H   0  0  0  0  0  0  0  0  0  0  0  0
   -4.1158  -10.2027    4.8862 H   0  0  0  0  0  0  0  0  0  0  0  0
   -5.6223   -9.1880    5.2060 H   0  0  0  0  0  0  0  0  0  0  0  0
    1.8484   -5.5400   -0.5811 H   0  0  0  0  0  0  0  0  0  0  0  0
    3.2230   -4.9776    0.4001 H   0  0  0  0  0  0  0  0  0  0  0  0
    2.0275   -6.0949    1.1007 H   0  0  0  0  0  0  0  0  0  0  0  0
  1  2  1  0  0  0  0
  1 26  1  0  0  0  0
  1 27  1  0  0  0  0
  1 28  1  0  0  0  0
  2  3  1  0  0  0  0
  2 29  1  0  0  0  0
  2 30  1  0  0  0  0
  3  4  1  0  0  0  0
  3 31  1  0  0  0  0
  3 32  1  0  0  0  0
  4 24  2  0  0  0  0
  4  5  1  0  0  0  0
  5 11  2  0  0  0  0
  5  6  1  0  0  0  0
  6  7  2  0  0  0  0
  6 23  1  0  0  0  0
  7  8  1  0  0  0  0
  7  9  1  0  0  0  0
  9 10  2  0  0  0  0
 10 11  1  0  0  0  0
 10 12  1  0  0  0  0
 12 17  2  0  0  0  0
 12 13  1  0  0  0  0
 13 14  2  0  0  0  0
 13 33  1  0  0  0  0
 14 15  1  0  0  0  0
 14 34  1  0  0  0  0
 15 16  2  0  0  0  0
 15 35  1  0  0  0  0
 16 17  1  0  0  0  0
 16 36  1  0  0  0  0
 17 18  1  0  0  0  0
 18 19  1  0  0  0  0
 19 20  1  0  0  0  0
 19 37  1  0  0  0  0
 19 38  1  0  0  0  0
 20 22  1  0  0  0  0
 20 21  1  0  0  0  0
 20 39  1  0  0  0  0
 21 22  1  0  0  0  0
 21 40  1  0  0  0  0
 21 41  1  0  0  0  0
 22 42  1  0  0  0  0
 22 43  1  0  0  0  0
 23 24  1  0  0  0  0
 23 25  1  0  0  0  0
 25 44  1  0  0  0  0
 25 45  1  0  0  0  0
 25 46  1  0  0  0  0
M  CHG  1   8  -1
M  END
$$$$
CHEMBL42563
  -OEChem-07121202283D

 34 36  0     0  0  0  0  0  0999 V2000
   -0.0187    1.5258    0.0104 C   0  0  0  0  0  0  0  0  0  0  0  0
    0.0021   -0.0041    0.0020 C   0  0  0  0  0  0  0  0  0  0  0  0
    0.7182   -0.4975   -1.2568 C   0  0  0  0  0  0  0  0  0  0  0  0
    0.7376   -1.9263   -1.2646 O   0  0  0  0  0  0  0  0  0  0  0  0
    1.3406   -2.5287   -2.3212 C   0  0  0  0  0  0  0  0  0  0  0  0
    1.9081   -1.7629   -3.3282 C   0  0  0  0  0  0  0  0  0  0  0  0
    2.5213   -2.3771   -4.4026 C   0  0  0  0  0  0  0  0  0  0  0  0
    2.5739   -3.7585   -4.4819 C   0  0  0  0  0  0  0  0  0  0  0  0
    2.0141   -4.5336   -3.4882 C   0  0  0  0  0  0  0  0  0  0  0  0
    1.3972   -3.9249   -2.3955 C   0  0  0  0  0  0  0  0  0  0  0  0
    0.7998   -4.7519   -1.3224 C   0  0  0  0  0  0  0  0  0  0  0  0
    0.8757   -6.0689   -1.4216 N   0  0  0  0  0  0  0  0  0  0  0  0
    0.3489   -6.8476   -0.4741 C   0  0  0  0  0  0  0  0  0  0  0  0
   -0.2908   -6.2341    0.6355 C   0  0  0  0  0  0  0  0  0  0  0  0
   -0.8423   -7.0533    1.6264 C   0  0  0  0  0  0  0  0  0  0  0  0
   -0.7416   -8.3626    1.4827 N   0  0  0  0  0  0  0  0  0  0  0  0
   -0.1379   -8.9003    0.4345 C   0  0  0  0  0  0  0  0  0  0  0  0
    0.3978   -8.1822   -0.5261 N   0  0  0  0  0  0  0  0  0  0  0  0
   -0.3430   -4.8231    0.6904 C   0  0  0  0  0  0  0  0  0  0  0  0
    0.2137   -4.1380   -0.2963 N   0  0  0  0  0  0  0  0  0  0  0  0
   -0.9404   -4.1898    1.7250 O   0  5  0  0  0  0  0  0  0  0  0  0
    1.0039    1.9031    0.0027 H   0  0  0  0  0  0  0  0  0  0  0  0
   -0.5459    1.8868   -0.8726 H   0  0  0  0  0  0  0  0  0  0  0  0
   -0.5289    1.8773    0.9072 H   0  0  0  0  0  0  0  0  0  0  0  0
    0.5293   -0.3651    0.8851 H   0  0  0  0  0  0  0  0  0  0  0  0
   -1.0205   -0.3814    0.0098 H   0  0  0  0  0  0  0  0  0  0  0  0
    0.1910   -0.1364   -2.1398 H   0  0  0  0  0  0  0  0  0  0  0  0
    1.7408   -0.1202   -1.2645 H   0  0  0  0  0  0  0  0  0  0  0  0
    1.8702   -0.6850   -3.2726 H   0  0  0  0  0  0  0  0  0  0  0  0
    2.9617   -1.7769   -5.1850 H   0  0  0  0  0  0  0  0  0  0  0  0
    3.0551   -4.2308   -5.3256 H   0  0  0  0  0  0  0  0  0  0  0  0
    2.0566   -5.6108   -3.5542 H   0  0  0  0  0  0  0  0  0  0  0  0
   -1.3369   -6.6265    2.4864 H   0  0  0  0  0  0  0  0  0  0  0  0
   -0.0831   -9.9768    0.3662 H   0  0  0  0  0  0  0  0  0  0  0  0
  1  2  1  0  0  0  0
  1 22  1  0  0  0  0
  1 23  1  0  0  0  0
  1 24  1  0  0  0  0
  2  3  1  0  0  0  0
  2 25  1  0  0  0  0
  2 26  1  0  0  0  0
  3  4  1  0  0  0  0
  3 27  1  0  0  0  0
  3 28  1  0  0  0  0
  4  5  1  0  0  0  0
  5 10  2  0  0  0  0
  5  6  1  0  0  0  0
  6  7  2  0  0  0  0
  6 29  1  0  0  0  0
  7  8  1  0  0  0  0
  7 30  1  0  0  0  0
  8  9  2  0  0  0  0
  8 31  1  0  0  0  0
  9 10  1  0  0  0  0
  9 32  1  0  0  0  0
 10 11  1  0  0  0  0
 11 20  2  0  0  0  0
 11 12  1  0  0  0  0
 12 13  2  0  0  0  0
 13 18  1  0  0  0  0
 13 14  1  0  0  0  0
 14 15  1  0  0  0  0
 14 19  2  0  0  0  0
 15 16  2  0  0  0  0
 15 33  1  0  0  0  0
 16 17  1  0  0  0  0
 17 18  2  0  0  0  0
 17 34  1  0  0  0  0
 19 20  1  0  0  0  0
 19 21  1  0  0  0  0
M  CHG  1  21  -1
M  END
$$$$
CHEMBL539778
  -OEChem-07121202283D

 70 74  0     0  0  0  0  0  0999 V2000
   -0.1233    0.9348   -0.0575 C   0  0  0  0  0  0  0  0  0  0  0  0
   -0.2824   -0.4785    0.0817 O   0  0  0  0  0  0  0  0  0  0  0  0
   -1.5550   -0.9521    0.1567 C   0  0  0  0  0  0  0  0  0  0  0  0
   -2.6232   -0.0761    0.0918 C   0  0  0  0  0  0  0  0  0  0  0  0
   -3.9298   -0.5630    0.1688 C   0  0  0  0  0  0  0  0  0  0  0  0
   -4.1542   -1.9340    0.3113 C   0  0  0  0  0  0  0  0  0  0  0  0
   -3.0826   -2.8059    0.3758 C   0  0  0  0  0  0  0  0  0  0  0  0
   -1.7815   -2.3186    0.2931 C   0  0  0  0  0  0  0  0  0  0  0  0
   -0.7296   -3.1786    0.3507 O   0  0  0  0  0  0  0  0  0  0  0  0
   -0.1979   -3.4674    1.6452 C   0  0  0  0  0  0  0  0  0  0  0  0
   -3.3005   -4.1411    0.5146 O   0  0  0  0  0  0  0  0  0  0  0  0
   -4.6610   -4.5723    0.5872 C   0  0  0  0  0  0  0  0  0  0  0  0
   -5.0730    0.3710    0.1002 C   0  0  0  0  0  0  0  0  0  0  0  0
   -5.2820    1.3710    1.1556 C   0  0  0  0  0  0  0  0  0  0  0  0
   -4.4183    1.4776    2.2521 C   0  0  0  0  0  0  0  0  0  0  0  0
   -4.6841    2.4373    3.1917 C   0  0  0  0  0  0  0  0  0  0  0  0
   -5.7929    3.2716    3.0332 C   0  0  0  0  0  0  0  0  0  0  0  0
   -6.5972    3.1578    1.9932 N   0  0  0  0  0  0  0  0  0  0  0  0
   -6.3836    2.2439    1.0547 C   0  0  0  0  0  0  0  0  0  0  0  0
   -7.2794    2.1138   -0.1089 C   0  0  0  0  0  0  0  0  0  0  0  0
   -8.2391    2.8535   -0.2245 O   0  0  0  0  0  0  0  0  0  0  0  0
   -7.0348    1.1768   -1.0435 N   0  0  0  0  0  0  0  0  0  0  0  0
   -5.9575    0.3193   -0.9612 C   0  0  0  0  0  0  0  0  0  0  0  0
   -5.7490   -0.6738   -2.0204 C   0  0  0  0  0  0  0  0  0  0  0  0
   -4.8450   -1.4818   -1.9270 O   0  0  0  0  0  0  0  0  0  0  0  0
   -6.5603   -0.6909   -3.0982 O   0  0  0  0  0  0  0  0  0  0  0  0
   -6.2994   -1.6852   -4.0908 C   0  0  0  0  0  0  0  0  0  0  0  0
   -7.9400    1.0680   -2.1903 C   0  0  0  0  0  0  0  0  0  0  0  0
   -8.9575   -0.0119   -1.9264 C   0  0  0  0  0  0  0  0  0  0  0  0
  -10.1934    0.3259   -1.4077 C   0  0  0  0  0  0  0  0  0  0  0  0
  -11.1221   -0.6751   -1.1686 C   0  0  0  0  0  0  0  0  0  0  0  0
  -10.7716   -1.9844   -1.4615 C   0  0  0  0  0  0  0  0  0  0  0  0
   -9.5170   -2.2460   -1.9783 C   0  0  0  0  0  0  0  0  0  0  0  0
   -8.6604   -1.2676   -2.1980 N   0  0  0  0  0  0  0  0  0  0  0  0
   -6.0489    4.2189    3.9686 O   0  0  0  0  0  0  0  0  0  0  0  0
   -7.1954    5.0454    3.7581 C   0  0  0  0  0  0  0  0  0  0  0  0
   -7.3187    6.0315    4.8910 C   0  0  0  0  0  0  0  0  0  0  0  0
   -6.3834    6.0231    5.9088 C   0  0  0  0  0  0  0  0  0  0  0  0
   -6.5059    6.9343    6.9463 C   0  0  0  0  0  0  0  0  0  0  0  0
   -7.5693    7.8240    6.9212 C   0  0  0  0  0  0  0  0  0  0  0  0
   -8.4652    7.7731    5.8703 C   0  0  0  0  0  0  0  0  0  0  0  0
   -8.3144    6.8959    4.8972 N   0  0  0  0  0  0  0  0  0  0  0  0
    0.9382    1.1779   -0.1055 H   0  0  0  0  0  0  0  0  0  0  0  0
   -0.6139    1.2672   -0.9723 H   0  0  0  0  0  0  0  0  0  0  0  0
   -0.5727    1.4372    0.7990 H   0  0  0  0  0  0  0  0  0  0  0  0
   -2.4471    0.9838   -0.0181 H   0  0  0  0  0  0  0  0  0  0  0  0
   -5.1637   -2.3130    0.3715 H   0  0  0  0  0  0  0  0  0  0  0  0
    0.6346   -4.1643    1.5489 H   0  0  0  0  0  0  0  0  0  0  0  0
    0.1523   -2.5448    2.1082 H   0  0  0  0  0  0  0  0  0  0  0  0
   -0.9750   -3.9132    2.2660 H   0  0  0  0  0  0  0  0  0  0  0  0
   -4.6932   -5.6563    0.6968 H   0  0  0  0  0  0  0  0  0  0  0  0
   -5.1447   -4.1058    1.4454 H   0  0  0  0  0  0  0  0  0  0  0  0
   -5.1828   -4.2837   -0.3252 H   0  0  0  0  0  0  0  0  0  0  0  0
   -3.5667    0.8211    2.3543 H   0  0  0  0  0  0  0  0  0  0  0  0
   -4.0397    2.5485    4.0512 H   0  0  0  0  0  0  0  0  0  0  0  0
   -6.3851   -2.6758   -3.6441 H   0  0  0  0  0  0  0  0  0  0  0  0
   -7.0222   -1.5882   -4.9009 H   0  0  0  0  0  0  0  0  0  0  0  0
   -5.2921   -1.5500   -4.4846 H   0  0  0  0  0  0  0  0  0  0  0  0
   -8.4506    2.0190   -2.3417 H   0  0  0  0  0  0  0  0  0  0  0  0
   -7.3670    0.8170   -3.0829 H   0  0  0  0  0  0  0  0  0  0  0  0
  -10.4323    1.3566   -1.1910 H   0  0  0  0  0  0  0  0  0  0  0  0
  -12.0955   -0.4408   -0.7635 H   0  0  0  0  0  0  0  0  0  0  0  0
  -11.4701   -2.7895   -1.2876 H   0  0  0  0  0  0  0  0  0  0  0  0
   -9.2363   -3.2630   -2.2090 H   0  0  0  0  0  0  0  0  0  0  0  0
   -7.0868    5.5847    2.8172 H   0  0  0  0  0  0  0  0  0  0  0  0
   -8.0896    4.4232    3.7191 H   0  0  0  0  0  0  0  0  0  0  0  0
   -5.5678    5.3153    5.8961 H   0  0  0  0  0  0  0  0  0  0  0  0
   -5.7904    6.9507    7.7551 H   0  0  0  0  0  0  0  0  0  0  0  0
   -7.6959    8.5474    7.7131 H   0  0  0  0  0  0  0  0  0  0  0  0
   -9.2960    8.4626    5.8434 H   0  0  0  0  0  0  0  0  0  0  0  0
  1  2  1  0  0  0  0
  1 43  1  0  0  0  0
  1 44  1  0  0  0  0
  1 45  1  0  0  0  0
  2  3  1  0  0  0  0
  3  8  2  0  0  0  0
  3  4  1  0  0  0  0
  4  5  2  0  0  0  0
  4 46  1  0  0  0  0
  5  6  1  0  0  0  0
  5 13  1  0  0  0  0
  6  7  2  0  0  0  0
  6 47  1  0  0  0  0
  7  8  1  0  0  0  0
  7 11  1  0  0  0  0
  8  9  1  0  0  0  0
  9 10  1  0  0  0  0
 10 48  1  0  0  0  0
 10 49  1  0  0  0  0
 10 50  1  0  0  0  0
 11 12  1  0  0  0  0
 12 51  1  0  0  0  0
 12 52  1  0  0  0  0
 12 53  1  0  0  0  0
 13 23  2  0  0  0  0
 13 14  1  0  0  0  0
 14 19  2  0  0  0  0
 14 15  1  0  0  0  0
 15 16  2  0  0  0  0
 15 54  1  0  0  0  0
 16 17  1  0  0  0  0
 16 55  1  0  0  0  0
 17 18  2  0  0  0  0
 17 35  1  0  0  0  0
 18 19  1  0  0  0  0
 19 20  1  0  0  0  0
 20 21  2  0  0  0  0
 20 22  1  0  0  0  0
 22 23  1  0  0  0  0
 22 28  1  0  0  0  0
 23 24  1  0  0  0  0
 24 25  2  0  0  0  0
 24 26  1  0  0  0  0
 26 27  1  0  0  0  0
 27 56  1  0  0  0  0
 27 57  1  0  0  0  0
 27 58  1  0  0  0  0
 28 29  1  0  0  0  0
 28 59  1  0  0  0  0
 28 60  1  0  0  0  0
 29 34  2  0  0  0  0
 29 30  1  0  0  0  0
 30 31  2  0  0  0  0
 30 61  1  0  0  0  0
 31 32  1  0  0  0  0
 31 62  1  0  0  0  0
 32 33  2  0  0  0  0
 32 63  1  0  0  0  0
 33 34  1  0  0  0  0
 33 64  1  0  0  0  0
 35 36  1  0  0  0  0
 36 37  1  0  0  0  0
 36 65  1  0  0  0  0
 36 66  1  0  0  0  0
 37 42  2  0  0  0  0
 37 38  1  0  0  0  0
 38 39  2  0  0  0  0
 38 67  1  0  0  0  0
 39 40  1  0  0  0  0
 39 68  1  0  0  0  0
 40 41  2  0  0  0  0
 40 69  1  0  0  0  0
 41 42  1  0  0  0  0
 41 70  1  0  0  0  0
M  END
$$$$
CHEMBL84731
  -OEChem-07121202283D

 72 76  0     0  0  0  0  0  0999 V2000
   -0.0187    1.5258    0.0104 C   0  0  0  0  0  0  0  0  0  0  0  0
    0.0021   -0.0041    0.0020 C   0  0  0  0  0  0  0  0  0  0  0  0
   -1.3386   -0.4987    0.0122 O   0  0  0  0  0  0  0  0  0  0  0  0
   -1.4981   -1.8467    0.0064 C   0  0  0  0  0  0  0  0  0  0  0  0
   -0.3895   -2.6788   -0.0028 C   0  0  0  0  0  0  0  0  0  0  0  0
   -0.5532   -4.0504   -0.0086 C   0  0  0  0  0  0  0  0  0  0  0  0
   -1.8226   -4.6041   -0.0048 C   0  0  0  0  0  0  0  0  0  0  0  0
   -2.9358   -3.7909    0.0044 C   0  0  0  0  0  0  0  0  0  0  0  0
   -2.7839   -2.4029    0.0157 C   0  0  0  0  0  0  0  0  0  0  0  0
   -3.9717   -1.5263    0.0318 C   0  0  0  0  0  0  0  0  0  0  0  0
   -3.9471   -0.2075    0.0328 N   0  0  0  0  0  0  0  0  0  0  0  0
   -5.5716   -2.8726    0.0401 H   0  0  0  0  0  0  0  0  0  0  0  0
   -5.1914    0.2686    0.0486 C   0  0  0  0  0  0  0  0  0  0  0  0
   -6.0583   -0.8196    0.0582 C   0  0  0  0  0  0  0  0  0  0  0  0
   -5.2655   -1.9521    0.0418 N   0  0  0  0  0  0  0  0  0  0  0  0
   -7.4495   -0.5898    0.0752 C   0  0  0  0  0  0  0  0  0  0  0  0
   -8.2284   -1.5265    0.0842 O   0  0  0  0  0  0  0  0  0  0  0  0
   -7.9083    0.6789    0.0817 N   0  0  0  0  0  0  0  0  0  0  0  0
   -7.0606    1.7219    0.0724 C   0  0  0  0  0  0  0  0  0  0  0  0
   -7.5109    2.8514    0.0791 O   0  0  0  0  0  0  0  0  0  0  0  0
   -5.7258    1.5479    0.0562 N   0  0  0  0  0  0  0  0  0  0  0  0
   -4.8365    2.7121    0.0469 C   0  0  0  0  0  0  0  0  0  0  0  0
   -4.5482    3.1127   -1.3770 C   0  0  0  0  0  0  0  0  0  0  0  0
   -3.4675    2.5646   -2.0428 C   0  0  0  0  0  0  0  0  0  0  0  0
   -3.2008    2.9304   -3.3480 C   0  0  0  0  0  0  0  0  0  0  0  0
   -4.0187    3.8483   -3.9907 C   0  0  0  0  0  0  0  0  0  0  0  0
   -5.1028    4.3965   -3.3206 C   0  0  0  0  0  0  0  0  0  0  0  0
   -5.3682    4.0234   -2.0173 C   0  0  0  0  0  0  0  0  0  0  0  0
   -3.7582    4.2102   -5.2745 O   0  0  0  0  0  0  0  0  0  0  0  0
   -4.6424    5.1601   -5.8729 C   0  0  0  0  0  0  0  0  0  0  0  0
   -9.3526    0.9234    0.0989 C   0  0  0  0  0  0  0  0  0  0  0  0
   -2.0157   -6.3555   -0.0122 S   0  0  0  0  0  0  0  0  0  0  0  0
   -3.3009   -6.6201   -0.5578 O   0  0  0  0  0  0  0  0  0  0  0  0
   -0.8252   -6.8930   -0.5718 O   0  0  0  0  0  0  0  0  0  0  0  0
   -2.0613   -6.8498    1.5676 N   0  0  0  0  0  0  0  0  0  0  0  0
   -0.8267   -7.2077    2.2825 C   0  0  0  0  0  0  0  0  0  0  0  0
   -0.7897   -6.4364    3.6062 C   0  0  0  0  0  0  0  0  0  0  0  0
   -2.0322   -6.6855    4.3492 N   0  0  0  0  0  0  0  0  0  0  0  0
   -3.2015   -6.1819    3.6163 C   0  0  0  0  0  0  0  0  0  0  0  0
   -3.3367   -6.9369    2.2949 C   0  0  0  0  0  0  0  0  0  0  0  0
   -1.9653   -6.1044    5.6967 C   0  0  0  0  0  0  0  0  0  0  0  0
    1.0039    1.9031    0.0027 H   0  0  0  0  0  0  0  0  0  0  0  0
   -0.5459    1.8868   -0.8726 H   0  0  0  0  0  0  0  0  0  0  0  0
   -0.5289    1.8773    0.9072 H   0  0  0  0  0  0  0  0  0  0  0  0
    0.5123   -0.3556   -0.8948 H   0  0  0  0  0  0  0  0  0  0  0  0
    0.5293   -0.3651    0.8851 H   0  0  0  0  0  0  0  0  0  0  0  0
    0.6035   -2.2542   -0.0059 H   0  0  0  0  0  0  0  0  0  0  0  0
    0.3136   -4.6946   -0.0165 H   0  0  0  0  0  0  0  0  0  0  0  0
   -3.9239   -4.2268    0.0067 H   0  0  0  0  0  0  0  0  0  0  0  0
   -5.3171    3.5406    0.5672 H   0  0  0  0  0  0  0  0  0  0  0  0
   -3.9027    2.4601    0.5496 H   0  0  0  0  0  0  0  0  0  0  0  0
   -2.8310    1.8500   -1.5420 H   0  0  0  0  0  0  0  0  0  0  0  0
   -2.3561    2.5026   -3.8674 H   0  0  0  0  0  0  0  0  0  0  0  0
   -5.7409    5.1113   -3.8188 H   0  0  0  0  0  0  0  0  0  0  0  0
   -6.2145    4.4465   -1.4966 H   0  0  0  0  0  0  0  0  0  0  0  0
   -5.6555    4.7581   -5.8818 H   0  0  0  0  0  0  0  0  0  0  0  0
   -4.6239    6.0860   -5.2981 H   0  0  0  0  0  0  0  0  0  0  0  0
   -4.3221    5.3607   -6.8953 H   0  0  0  0  0  0  0  0  0  0  0  0
   -9.8824   -0.0291    0.1042 H   0  0  0  0  0  0  0  0  0  0  0  0
   -9.6146    1.4899    0.9925 H   0  0  0  0  0  0  0  0  0  0  0  0
   -9.6354    1.4916   -0.7873 H   0  0  0  0  0  0  0  0  0  0  0  0
   -0.8170   -8.2791    2.4826 H   0  0  0  0  0  0  0  0  0  0  0  0
    0.0384   -6.9375    1.6770 H   0  0  0  0  0  0  0  0  0  0  0  0
    0.0617   -6.7713    4.1986 H   0  0  0  0  0  0  0  0  0  0  0  0
   -0.6950   -5.3697    3.4031 H   0  0  0  0  0  0  0  0  0  0  0  0
   -4.0991   -6.3322    4.2161 H   0  0  0  0  0  0  0  0  0  0  0  0
   -3.0732   -5.1187    3.4131 H   0  0  0  0  0  0  0  0  0  0  0  0
   -4.1302   -6.4877    1.6976 H   0  0  0  0  0  0  0  0  0  0  0  0
   -3.5728   -7.9817    2.4963 H   0  0  0  0  0  0  0  0  0  0  0  0
   -1.8132   -5.0278    5.6210 H   0  0  0  0  0  0  0  0  0  0  0  0
   -2.8977   -6.3034    6.2250 H   0  0  0  0  0  0  0  0  0  0  0  0
   -1.1352   -6.5510    6.2441 H   0  0  0  0  0  0  0  0  0  0  0  0
  1  2  1  0  0  0  0
  1 42  1  0  0  0  0
  1 43  1  0  0  0  0
  1 44  1  0  0  0  0
  2  3  1  0  0  0  0
  2 45  1  0  0  0  0
  2 46  1  0  0  0  0
  3  4  1  0  0  0  0
  4  9  2  0  0  0  0
  4  5  1  0  0  0  0
  5  6  2  0  0  0  0
  5 47  1  0  0  0  0
  6  7  1  0  0  0  0
  6 48  1  0  0  0  0
  7  8  2  0  0  0  0
  7 32  1  0  0  0  0
  8  9  1  0  0  0  0
  8 49  1  0  0  0  0
  9 10  1  0  0  0  0
 10 15  1  0  0  0  0
 10 11  2  0  0  0  0
 11 13  1  0  0  0  0
 12 15  1  0  0  0  0
 13 21  1  0  0  0  0
 13 14  2  0  0  0  0
 14 16  1  0  0  0  0
 14 15  1  0  0  0  0
 16 18  1  0  0  0  0
 16 17  2  0  0  0  0
 18 19  1  0  0  0  0
 18 31  1  0  0  0  0
 19 21  1  0  0  0  0
 19 20  2  0  0  0  0
 21 22  1  0  0  0  0
 22 23  1  0  0  0  0
 22 50  1  0  0  0  0
 22 51  1  0  0  0  0
 23 28  2  0  0  0  0
 23 24  1  0  0  0  0
 24 25  2  0  0  0  0
 24 52  1  0  0  0  0
 25 26  1  0  0  0  0
 25 53  1  0  0  0  0
 26 27  2  0  0  0  0
 26 29  1  0  0  0  0
 27 28  1  0  0  0  0
 27 54  1  0  0  0  0
 28 55  1  0  0  0  0
 29 30  1  0  0  0  0
 30 56  1  0  0  0  0
 30 57  1  0  0  0  0
 30 58  1  0  0  0  0
 31 59  1  0  0  0  0
 31 60  1  0  0  0  0
 31 61  1  0  0  0  0
 32 33  2  0  0  0  0
 32 34  2  0  0  0  0
 32 35  1  0  0  0  0
 35 40  1  0  0  0  0
 35 36  1  0  0  0  0
 36 37  1  0  0  0  0
 36 62  1  0  0  0  0
 36 63  1  0  0  0  0
 37 38  1  0  0  0  0
 37 64  1  0  0  0  0
 37 65  1  0  0  0  0
 38 39  1  0  0  0  0
 38 41  1  0  0  0  0
 39 40  1  0  0  0  0
 39 66  1  0  0  0  0
 39 67  1  0  0  0  0
 40 68  1  0  0  0  0
 40 69  1  0  0  0  0
 41 70  1  0  0  0  0
 41 71  1  0  0  0  0
 41 72  1  0  0  0  0
M  END
$$$$
CHEMBL84731
  -OEChem-07121202283D

 71 75  0     0  0  0  0  0  0999 V2000
   -0.0187    1.5258    0.0104 C   0  0  0  0  0  0  0  0  0  0  0  0
    0.0021   -0.0041    0.0020 C   0  0  0  0  0  0  0  0  0  0  0  0
    0.6709   -0.4649   -1.1737 O   0  0  0  0  0  0  0  0  0  0  0  0
    0.7767   -1.8093   -1.3361 C   0  0  0  0  0  0  0  0  0  0  0  0
    0.2437   -2.6684   -0.3883 C   0  0  0  0  0  0  0  0  0  0  0  0
    0.3519   -4.0359   -0.5546 C   0  0  0  0  0  0  0  0  0  0  0  0
    0.9914   -4.5562   -1.6664 C   0  0  0  0  0  0  0  0  0  0  0  0
    1.5265   -3.7130   -2.6184 C   0  0  0  0  0  0  0  0  0  0  0  0
    1.4189   -2.3319   -2.4635 C   0  0  0  0  0  0  0  0  0  0  0  0
    1.9867   -1.4217   -3.4855 C   0  0  0  0  0  0  0  0  0  0  0  0
    2.6145   -1.8143   -4.6006 N   0  0  0  0  0  0  0  0  0  0  0  0
    2.9872   -0.7441   -5.2776 C   0  0  0  0  0  0  0  0  0  0  0  0
    2.5608    0.3788   -4.5300 C   0  0  0  0  0  0  0  0  0  0  0  0
    1.9434   -0.1019   -3.4341 N   0  0  0  0  0  0  0  0  0  0  0  0
    2.8290    1.6582   -5.0230 C   0  0  0  0  0  0  0  0  0  0  0  0
    2.4378    2.7475   -4.3368 O   0  5  0  0  0  0  0  0  0  0  0  0
    3.4918    1.7906   -6.2065 N   0  0  0  0  0  0  0  0  0  0  0  0
    3.8903    0.7147   -6.9058 C   0  0  0  0  0  0  0  0  0  0  0  0
    4.4790    0.8770   -7.9575 O   0  0  0  0  0  0  0  0  0  0  0  0
    3.6558   -0.5385   -6.4723 N   0  0  0  0  0  0  0  0  0  0  0  0
    4.1082   -1.6845   -7.2650 C   0  0  0  0  0  0  0  0  0  0  0  0
    3.0241   -2.0859   -8.2318 C   0  0  0  0  0  0  0  0  0  0  0  0
    2.0698   -3.0119   -7.8529 C   0  0  0  0  0  0  0  0  0  0  0  0
    1.0752   -3.3819   -8.7375 C   0  0  0  0  0  0  0  0  0  0  0  0
    1.0342   -2.8231  -10.0066 C   0  0  0  0  0  0  0  0  0  0  0  0
    1.9926   -1.8939  -10.3841 C   0  0  0  0  0  0  0  0  0  0  0  0
    2.9821   -1.5233   -9.4941 C   0  0  0  0  0  0  0  0  0  0  0  0
    0.0571   -3.1858  -10.8787 O   0  0  0  0  0  0  0  0  0  0  0  0
    0.0769   -2.5698  -12.1680 C   0  0  0  0  0  0  0  0  0  0  0  0
    3.7745    3.1309   -6.7261 C   0  0  0  0  0  0  0  0  0  0  0  0
    1.1232   -6.3018   -1.8663 S   0  0  0  0  0  0  0  0  0  0  0  0
    2.2421   -6.5304   -2.7120 O   0  0  0  0  0  0  0  0  0  0  0  0
    1.0219   -6.8682   -0.5671 O   0  0  0  0  0  0  0  0  0  0  0  0
   -0.2143   -6.8008   -2.7057 N   0  0  0  0  0  0  0  0  0  0  0  0
   -1.4443   -7.1937   -2.0015 C   0  0  0  0  0  0  0  0  0  0  0  0
   -2.6219   -6.4288   -2.6150 C   0  0  0  0  0  0  0  0  0  0  0  0
   -2.6407   -6.6480   -4.0675 N   0  0  0  0  0  0  0  0  0  0  0  0
   -1.4300   -6.1110   -4.7031 C   0  0  0  0  0  0  0  0  0  0  0  0
   -0.2056   -6.8571   -4.1754 C   0  0  0  0  0  0  0  0  0  0  0  0
   -3.8508   -6.0741   -4.6709 C   0  0  0  0  0  0  0  0  0  0  0  0
    1.0039    1.9031    0.0027 H   0  0  0  0  0  0  0  0  0  0  0  0
   -0.5459    1.8868   -0.8726 H   0  0  0  0  0  0  0  0  0  0  0  0
   -0.5289    1.8773    0.9072 H   0  0  0  0  0  0  0  0  0  0  0  0
    0.5293   -0.3651    0.8851 H   0  0  0  0  0  0  0  0  0  0  0  0
   -1.0205   -0.3814    0.0098 H   0  0  0  0  0  0  0  0  0  0  0  0
   -0.2565   -2.2686    0.4815 H   0  0  0  0  0  0  0  0  0  0  0  0
   -0.0642   -4.7020    0.1868 H   0  0  0  0  0  0  0  0  0  0  0  0
    2.0248   -4.1226   -3.4846 H   0  0  0  0  0  0  0  0  0  0  0  0
    5.0062   -1.4112   -7.8191 H   0  0  0  0  0  0  0  0  0  0  0  0
    4.3309   -2.5201   -6.6015 H   0  0  0  0  0  0  0  0  0  0  0  0
    2.1021   -3.4466   -6.8648 H   0  0  0  0  0  0  0  0  0  0  0  0
    0.3304   -4.1058   -8.4413 H   0  0  0  0  0  0  0  0  0  0  0  0
    1.9629   -1.4575  -11.3716 H   0  0  0  0  0  0  0  0  0  0  0  0
    3.7258   -0.7967   -9.7860 H   0  0  0  0  0  0  0  0  0  0  0  0
   -0.0166   -1.4896  -12.0561 H   0  0  0  0  0  0  0  0  0  0  0  0
    1.0170   -2.8033  -12.6678 H   0  0  0  0  0  0  0  0  0  0  0  0
   -0.7546   -2.9467  -12.7636 H   0  0  0  0  0  0  0  0  0  0  0  0
    3.3828    3.8782   -6.0360 H   0  0  0  0  0  0  0  0  0  0  0  0
    4.8518    3.2608   -6.8291 H   0  0  0  0  0  0  0  0  0  0  0  0
    3.2993    3.2509   -7.6996 H   0  0  0  0  0  0  0  0  0  0  0  0
   -1.6049   -8.2658   -2.1154 H   0  0  0  0  0  0  0  0  0  0  0  0
   -1.3565   -6.9441   -0.9442 H   0  0  0  0  0  0  0  0  0  0  0  0
   -3.5549   -6.7883   -2.1809 H   0  0  0  0  0  0  0  0  0  0  0  0
   -2.5109   -5.3642   -2.4092 H   0  0  0  0  0  0  0  0  0  0  0  0
   -1.4986   -6.2400   -5.7832 H   0  0  0  0  0  0  0  0  0  0  0  0
   -1.3356   -5.0508   -4.4682 H   0  0  0  0  0  0  0  0  0  0  0  0
    0.7007   -6.3850   -4.5546 H   0  0  0  0  0  0  0  0  0  0  0  0
   -0.2448   -7.8962   -4.5023 H   0  0  0  0  0  0  0  0  0  0  0  0
   -3.8789   -5.0015   -4.4789 H   0  0  0  0  0  0  0  0  0  0  0  0
   -3.8392   -6.2505   -5.7464 H   0  0  0  0  0  0  0  0  0  0  0  0
   -4.7322   -6.5444   -4.2350 H   0  0  0  0  0  0  0  0  0  0  0  0
  1  2  1  0  0  0  0
  1 41  1  0  0  0  0
  1 42  1  0  0  0  0
  1 43  1  0  0  0  0
  2  3  1  0  0  0  0
  2 44  1  0  0  0  0
  2 45  1  0  0  0  0
  3  4  1  0  0  0  0
  4  9  2  0  0  0  0
  4  5  1  0  0  0  0
  5  6  2  0  0  0  0
  5 46  1  0  0  0  0
  6  7  1  0  0  0  0
  6 47  1  0  0  0  0
  7  8  2  0  0  0  0
  7 31  1  0  0  0  0
  8  9  1  0  0  0  0
  8 48  1  0  0  0  0
  9 10  1  0  0  0  0
 10 14  2  0  0  0  0
 10 11  1  0  0  0  0
 11 12  2  0  0  0  0
 12 20  1  0  0  0  0
 12 13  1  0  0  0  0
 13 15  2  0  0  0  0
 13 14  1  0  0  0  0
 15 17  1  0  0  0  0
 15 16  1  0  0  0  0
 17 18  1  0  0  0  0
 17 30  1  0  0  0  0
 18 20  1  0  0  0  0
 18 19  2  0  0  0  0
 20 21  1  0  0  0  0
 21 22  1  0  0  0  0
 21 49  1  0  0  0  0
 21 50  1  0  0  0  0
 22 27  2  0  0  0  0
 22 23  1  0  0  0  0
 23 24  2  0  0  0  0
 23 51  1  0  0  0  0
 24 25  1  0  0  0  0
 24 52  1  0  0  0  0
 25 26  2  0  0  0  0
 25 28  1  0  0  0  0
 26 27  1  0  0  0  0
 26 53  1  0  0  0  0
 27 54  1  0  0  0  0
 28 29  1  0  0  0  0
 29 55  1  0  0  0  0
 29 56  1  0  0  0  0
 29 57  1  0  0  0  0
 30 58  1  0  0  0  0
 30 59  1  0  0  0  0
 30 60  1  0  0  0  0
 31 32  2  0  0  0  0
 31 33  2  0  0  0  0
 31 34  1  0  0  0  0
 34 39  1  0  0  0  0
 34 35  1  0  0  0  0
 35 36  1  0  0  0  0
 35 61  1  0  0  0  0
 35 62  1  0  0  0  0
 36 37  1  0  0  0  0
 36 63  1  0  0  0  0
 36 64  1  0  0  0  0
 37 38  1  0  0  0  0
 37 40  1  0  0  0  0
 38 39  1  0  0  0  0
 38 65  1  0  0  0  0
 38 66  1  0  0  0  0
 39 67  1  0  0  0  0
 39 68  1  0  0  0  0
 40 69  1  0  0  0  0
 40 70  1  0  0  0  0
 40 71  1  0  0  0  0
M  CHG  1  16  -1
M  END
$$$$
CHEMBL84731
  -OEChem-07121202283D

 73 77  0     0  0  0  0  0  0999 V2000
   -0.0187    1.5258    0.0104 C   0  0  0  0  0  0  0  0  0  0  0  0
    0.0021   -0.0041    0.0020 C   0  0  0  0  0  0  0  0  0  0  0  0
   -1.3386   -0.4987    0.0122 O   0  0  0  0  0  0  0  0  0  0  0  0
   -1.4981   -1.8467    0.0064 C   0  0  0  0  0  0  0  0  0  0  0  0
   -0.3895   -2.6788   -0.0028 C   0  0  0  0  0  0  0  0  0  0  0  0
   -0.5532   -4.0504   -0.0086 C   0  0  0  0  0  0  0  0  0  0  0  0
   -1.8226   -4.6041   -0.0048 C   0  0  0  0  0  0  0  0  0  0  0  0
   -2.9358   -3.7909    0.0044 C   0  0  0  0  0  0  0  0  0  0  0  0
   -2.7839   -2.4029    0.0157 C   0  0  0  0  0  0  0  0  0  0  0  0
   -3.9717   -1.5263    0.0318 C   0  0  0  0  0  0  0  0  0  0  0  0
   -3.9471   -0.2075    0.0328 N   0  0  0  0  0  0  0  0  0  0  0  0
   -5.5716   -2.8726    0.0401 H   0  0  0  0  0  0  0  0  0  0  0  0
   -5.1914    0.2686    0.0486 C   0  0  0  0  0  0  0  0  0  0  0  0
   -6.0583   -0.8196    0.0582 C   0  0  0  0  0  0  0  0  0  0  0  0
   -5.2655   -1.9521    0.0418 N   0  0  0  0  0  0  0  0  0  0  0  0
   -7.4495   -0.5898    0.0752 C   0  0  0  0  0  0  0  0  0  0  0  0
   -8.2284   -1.5265    0.0842 O   0  0  0  0  0  0  0  0  0  0  0  0
   -7.9083    0.6789    0.0817 N   0  0  0  0  0  0  0  0  0  0  0  0
   -7.0606    1.7219    0.0724 C   0  0  0  0  0  0  0  0  0  0  0  0
   -7.5109    2.8514    0.0791 O   0  0  0  0  0  0  0  0  0  0  0  0
   -5.7258    1.5479    0.0562 N   0  0  0  0  0  0  0  0  0  0  0  0
   -4.8365    2.7121    0.0469 C   0  0  0  0  0  0  0  0  0  0  0  0
   -4.5482    3.1127   -1.3770 C   0  0  0  0  0  0  0  0  0  0  0  0
   -3.4675    2.5646   -2.0428 C   0  0  0  0  0  0  0  0  0  0  0  0
   -3.2008    2.9304   -3.3480 C   0  0  0  0  0  0  0  0  0  0  0  0
   -4.0187    3.8483   -3.9907 C   0  0  0  0  0  0  0  0  0  0  0  0
   -5.1028    4.3965   -3.3206 C   0  0  0  0  0  0  0  0  0  0  0  0
   -5.3682    4.0234   -2.0173 C   0  0  0  0  0  0  0  0  0  0  0  0
   -3.7582    4.2102   -5.2745 O   0  0  0  0  0  0  0  0  0  0  0  0
   -4.6424    5.1601   -5.8729 C   0  0  0  0  0  0  0  0  0  0  0  0
   -9.3526    0.9234    0.0989 C   0  0  0  0  0  0  0  0  0  0  0  0
   -2.0157   -6.3555   -0.0122 S   0  0  0  0  0  0  0  0  0  0  0  0
   -3.3009   -6.6201   -0.5578 O   0  0  0  0  0  0  0  0  0  0  0  0
   -0.8252   -6.8930   -0.5718 O   0  0  0  0  0  0  0  0  0  0  0  0
   -2.0613   -6.8498    1.5676 N   0  0  0  0  0  0  0  0  0  0  0  0
   -0.8273   -7.2080    2.2840 C   0  0  0  0  0  0  0  0  0  0  0  0
   -0.8015   -6.4505    3.6157 C   0  0  0  0  0  0  0  0  0  0  0  0
   -2.0366   -6.7282    4.3597 N   0  3  0  0  0  0  0  0  0  0  0  0
   -3.1925   -6.1978    3.6258 C   0  0  0  0  0  0  0  0  0  0  0  0
   -3.3362   -6.9374    2.2963 C   0  0  0  0  0  0  0  0  0  0  0  0
   -1.9636   -6.0913    5.6814 C   0  0  0  0  0  0  0  0  0  0  0  0
    1.0039    1.9031    0.0027 H   0  0  0  0  0  0  0  0  0  0  0  0
   -0.5459    1.8868   -0.8726 H   0  0  0  0  0  0  0  0  0  0  0  0
   -0.5289    1.8773    0.9072 H   0  0  0  0  0  0  0  0  0  0  0  0
    0.5123   -0.3556   -0.8948 H   0  0  0  0  0  0  0  0  0  0  0  0
    0.5293   -0.3651    0.8851 H   0  0  0  0  0  0  0  0  0  0  0  0
    0.6035   -2.2542   -0.0059 H   0  0  0  0  0  0  0  0  0  0  0  0
    0.3136   -4.6946   -0.0165 H   0  0  0  0  0  0  0  0  0  0  0  0
   -3.9239   -4.2268    0.0067 H   0  0  0  0  0  0  0  0  0  0  0  0
   -5.3171    3.5406    0.5672 H   0  0  0  0  0  0  0  0  0  0  0  0
   -3.9027    2.4601    0.5496 H   0  0  0  0  0  0  0  0  0  0  0  0
   -2.8310    1.8500   -1.5420 H   0  0  0  0  0  0  0  0  0  0  0  0
   -2.3561    2.5026   -3.8674 H   0  0  0  0  0  0  0  0  0  0  0  0
   -5.7409    5.1113   -3.8188 H   0  0  0  0  0  0  0  0  0  0  0  0
   -6.2145    4.4465   -1.4966 H   0  0  0  0  0  0  0  0  0  0  0  0
   -5.6555    4.7581   -5.8818 H   0  0  0  0  0  0  0  0  0  0  0  0
   -4.6239    6.0860   -5.2981 H   0  0  0  0  0  0  0  0  0  0  0  0
   -4.3221    5.3607   -6.8953 H   0  0  0  0  0  0  0  0  0  0  0  0
   -9.8824   -0.0291    0.1042 H   0  0  0  0  0  0  0  0  0  0  0  0
   -9.6146    1.4899    0.9925 H   0  0  0  0  0  0  0  0  0  0  0  0
   -9.6354    1.4916   -0.7873 H   0  0  0  0  0  0  0  0  0  0  0  0
   -0.8118   -8.2814    2.4728 H   0  0  0  0  0  0  0  0  0  0  0  0
    0.0388   -6.9259    1.6853 H   0  0  0  0  0  0  0  0  0  0  0  0
    0.0574   -6.7762    4.2025 H   0  0  0  0  0  0  0  0  0  0  0  0
   -0.7258   -5.3802    3.4236 H   0  0  0  0  0  0  0  0  0  0  0  0
   -4.0955   -6.3373    4.2201 H   0  0  0  0  0  0  0  0  0  0  0  0
   -3.0444   -5.1352    3.4334 H   0  0  0  0  0  0  0  0  0  0  0  0
   -4.1280   -6.4765    1.7058 H   0  0  0  0  0  0  0  0  0  0  0  0
   -3.5784   -7.9830    2.4865 H   0  0  0  0  0  0  0  0  0  0  0  0
   -1.8463   -5.0144    5.5598 H   0  0  0  0  0  0  0  0  0  0  0  0
   -2.8799   -6.2967    6.2348 H   0  0  0  0  0  0  0  0  0  0  0  0
   -1.1105   -6.4900    6.2303 H   0  0  0  0  0  0  0  0  0  0  0  0
   -2.1414   -7.7251    4.4748 H   0  0  0  0  0  0  0  0  0  0  0  0
  1  2  1  0  0  0  0
  1 42  1  0  0  0  0
  1 43  1  0  0  0  0
  1 44  1  0  0  0  0
  2  3  1  0  0  0  0
  2 45  1  0  0  0  0
  2 46  1  0  0  0  0
  3  4  1  0  0  0  0
  4  9  2  0  0  0  0
  4  5  1  0  0  0  0
  5  6  2  0  0  0  0
  5 47  1  0  0  0  0
  6  7  1  0  0  0  0
  6 48  1  0  0  0  0
  7  8  2  0  0  0  0
  7 32  1  0  0  0  0
  8  9  1  0  0  0  0
  8 49  1  0  0  0  0
  9 10  1  0  0  0  0
 10 15  1  0  0  0  0
 10 11  2  0  0  0  0
 11 13  1  0  0  0  0
 12 15  1  0  0  0  0
 13 21  1  0  0  0  0
 13 14  2  0  0  0  0
 14 16  1  0  0  0  0
 14 15  1  0  0  0  0
 16 18  1  0  0  0  0
 16 17  2  0  0  0  0
 18 19  1  0  0  0  0
 18 31  1  0  0  0  0
 19 21  1  0  0  0  0
 19 20  2  0  0  0  0
 21 22  1  0  0  0  0
 22 23  1  0  0  0  0
 22 50  1  0  0  0  0
 22 51  1  0  0  0  0
 23 28  2  0  0  0  0
 23 24  1  0  0  0  0
 24 25  2  0  0  0  0
 24 52  1  0  0  0  0
 25 26  1  0  0  0  0
 25 53  1  0  0  0  0
 26 27  2  0  0  0  0
 26 29  1  0  0  0  0
 27 28  1  0  0  0  0
 27 54  1  0  0  0  0
 28 55  1  0  0  0  0
 29 30  1  0  0  0  0
 30 56  1  0  0  0  0
 30 57  1  0  0  0  0
 30 58  1  0  0  0  0
 31 59  1  0  0  0  0
 31 60  1  0  0  0  0
 31 61  1  0  0  0  0
 32 33  2  0  0  0  0
 32 34  2  0  0  0  0
 32 35  1  0  0  0  0
 35 40  1  0  0  0  0
 35 36  1  0  0  0  0
 36 37  1  0  0  0  0
 36 62  1  0  0  0  0
 36 63  1  0  0  0  0
 37 38  1  0  0  0  0
 37 64  1  0  0  0  0
 37 65  1  0  0  0  0
 38 39  1  0  0  0  0
 38 41  1  0  0  0  0
 38 73  1  0  0  0  0
 39 40  1  0  0  0  0
 39 66  1  0  0  0  0
 39 67  1  0  0  0  0
 40 68  1  0  0  0  0
 40 69  1  0  0  0  0
 41 70  1  0  0  0  0
 41 71  1  0  0  0  0
 41 72  1  0  0  0  0
M  CHG  1  38   1
M  END
$$$$
CHEMBL566598
  -OEChem-07121202283D

 64 67  0     0  0  0  0  0  0999 V2000
   -0.0187    1.5258    0.0104 C   0  0  0  0  0  0  0  0  0  0  0  0
    0.0021   -0.0041    0.0020 C   0  0  0  0  0  0  0  0  0  0  0  0
    0.7421   -0.5109    1.2415 C   0  0  0  0  0  0  0  0  0  0  0  0
    0.7614   -1.9398    1.2337 O   0  0  0  0  0  0  0  0  0  0  0  0
    1.4328   -2.5181    2.3548 C   0  0  0  0  0  0  0  0  0  0  0  0
    1.3920   -4.0434    2.2424 C   0  0  0  0  0  0  0  0  0  0  0  0
    2.1607   -4.4673    1.0694 N   0  0  0  0  0  0  0  0  0  0  0  0
    1.5510   -4.5892   -0.1616 C   0  0  0  0  0  0  0  0  0  0  0  0
    0.1975   -4.3144   -0.3216 C   0  0  0  0  0  0  0  0  0  0  0  0
   -0.3697   -4.4521   -1.5835 C   0  0  0  0  0  0  0  0  0  0  0  0
    0.3610   -4.8398   -2.6260 N   0  0  0  0  0  0  0  0  0  0  0  0
    1.6422   -5.1100   -2.5225 C   0  0  0  0  0  0  0  0  0  0  0  0
    2.2949   -4.9969   -1.2870 C   0  0  0  0  0  0  0  0  0  0  0  0
    3.6091   -5.2728   -1.1770 N   0  0  0  0  0  0  0  0  0  0  0  0
    4.2233   -5.1687   -0.0254 C   0  0  0  0  0  0  0  0  0  0  0  0
    3.4806   -4.7400    1.1747 C   0  0  0  0  0  0  0  0  0  0  0  0
    4.0478   -4.6369    2.2465 O   0  0  0  0  0  0  0  0  0  0  0  0
    5.5736   -5.4569    0.0651 N   0  0  0  0  0  0  0  0  0  0  0  0
    6.3142   -5.8779   -1.1267 C   0  0  0  0  0  0  0  0  0  0  0  0
    7.7545   -6.1282   -0.7607 C   0  0  0  0  0  0  0  0  0  0  0  0
    8.1258   -5.9705    0.3830 O   0  0  0  0  0  0  0  0  0  0  0  0
    8.6300   -6.5274   -1.7045 N   0  0  0  0  0  0  0  0  0  0  0  0
    8.3177   -6.7501   -3.1237 C   0  0  0  0  0  0  0  0  0  0  0  0
    9.6169   -7.2215   -3.8103 C   0  0  0  0  0  0  0  0  0  0  0  0
   10.4514   -7.7812   -2.6281 C   0  0  0  0  0  0  0  0  0  0  0  0
   10.0610   -6.8068   -1.4858 C   0  0  0  0  0  0  0  0  0  0  0  0
   -1.8112   -4.1630   -1.7704 C   0  0  0  0  0  0  0  0  0  0  0  0
   -2.4287   -4.3995   -3.0045 C   0  0  0  0  0  0  0  0  0  0  0  0
   -3.7741   -4.1144   -3.1305 C   0  0  0  0  0  0  0  0  0  0  0  0
   -4.4661   -3.6060   -2.0368 C   0  0  0  0  0  0  0  0  0  0  0  0
   -3.8530   -3.3932   -0.8837 N   0  0  0  0  0  0  0  0  0  0  0  0
   -2.5724   -3.6574   -0.7194 C   0  0  0  0  0  0  0  0  0  0  0  0
   -5.7875   -3.3239   -2.1537 O   0  0  0  0  0  0  0  0  0  0  0  0
   -6.4447   -2.8039   -0.9962 C   0  0  0  0  0  0  0  0  0  0  0  0
    1.0039    1.9031    0.0027 H   0  0  0  0  0  0  0  0  0  0  0  0
   -0.5459    1.8868   -0.8726 H   0  0  0  0  0  0  0  0  0  0  0  0
   -0.5289    1.8773    0.9072 H   0  0  0  0  0  0  0  0  0  0  0  0
   -1.0205   -0.3814    0.0098 H   0  0  0  0  0  0  0  0  0  0  0  0
    0.5123   -0.3556   -0.8948 H   0  0  0  0  0  0  0  0  0  0  0  0
    1.7647   -0.1336    1.2338 H   0  0  0  0  0  0  0  0  0  0  0  0
    0.2319   -0.1594    2.1383 H   0  0  0  0  0  0  0  0  0  0  0  0
    2.4697   -2.1825    2.3702 H   0  0  0  0  0  0  0  0  0  0  0  0
    0.9369   -2.2082    3.2747 H   0  0  0  0  0  0  0  0  0  0  0  0
    1.8250   -4.4856    3.1397 H   0  0  0  0  0  0  0  0  0  0  0  0
    0.3582   -4.3726    2.1376 H   0  0  0  0  0  0  0  0  0  0  0  0
   -0.4026   -4.0000    0.5194 H   0  0  0  0  0  0  0  0  0  0  0  0
    2.1967   -5.4219   -3.3952 H   0  0  0  0  0  0  0  0  0  0  0  0
    6.0298   -5.3802    0.9177 H   0  0  0  0  0  0  0  0  0  0  0  0
    5.8754   -6.7938   -1.5225 H   0  0  0  0  0  0  0  0  0  0  0  0
    6.2623   -5.0941   -1.8824 H   0  0  0  0  0  0  0  0  0  0  0  0
    7.5491   -7.5172   -3.2182 H   0  0  0  0  0  0  0  0  0  0  0  0
    7.9745   -5.8206   -3.5781 H   0  0  0  0  0  0  0  0  0  0  0  0
    9.4060   -8.0048   -4.5384 H   0  0  0  0  0  0  0  0  0  0  0  0
   10.1300   -6.3833   -4.2818 H   0  0  0  0  0  0  0  0  0  0  0  0
   10.1570   -8.8037   -2.3916 H   0  0  0  0  0  0  0  0  0  0  0  0
   11.5187   -7.7230   -2.8411 H   0  0  0  0  0  0  0  0  0  0  0  0
   10.6418   -5.8869   -1.5537 H   0  0  0  0  0  0  0  0  0  0  0  0
   10.2111   -7.2806   -0.5157 H   0  0  0  0  0  0  0  0  0  0  0  0
   -1.8666   -4.7949   -3.8377 H   0  0  0  0  0  0  0  0  0  0  0  0
   -4.2829   -4.2841   -4.0679 H   0  0  0  0  0  0  0  0  0  0  0  0
   -2.1076   -3.4757    0.2383 H   0  0  0  0  0  0  0  0  0  0  0  0
   -5.9707   -1.8685   -0.6987 H   0  0  0  0  0  0  0  0  0  0  0  0
   -7.4947   -2.6223   -1.2255 H   0  0  0  0  0  0  0  0  0  0  0  0
   -6.3700   -3.5242   -0.1816 H   0  0  0  0  0  0  0  0  0  0  0  0
  1  2  1  0  0  0  0
  1 35  1  0  0  0  0
  1 36  1  0  0  0  0
  1 37  1  0  0  0  0
  2  3  1  0  0  0  0
  2 38  1  0  0  0  0
  2 39  1  0  0  0  0
  3  4  1  0  0  0  0
  3 40  1  0  0  0  0
  3 41  1  0  0  0  0
  4  5  1  0  0  0  0
  5  6  1  0  0  0  0
  5 42  1  0  0  0  0
  5 43  1  0  0  0  0
  6  7  1  0  0  0  0
  6 44  1  0  0  0  0
  6 45  1  0  0  0  0
  7 16  1  0  0  0  0
  7  8  1  0  0  0  0
  8 13  2  0  0  0  0
  8  9  1  0  0  0  0
  9 10  2  0  0  0  0
  9 46  1  0  0  0  0
 10 11  1  0  0  0  0
 10 27  1  0  0  0  0
 11 12  2  0  0  0  0
 12 13  1  0  0  0  0
 12 47  1  0  0  0  0
 13 14  1  0  0  0  0
 14 15  2  0  0  0  0
 15 16  1  0  0  0  0
 15 18  1  0  0  0  0
 16 17  2  0  0  0  0
 18 19  1  0  0  0  0
 18 48  1  0  0  0  0
 19 20  1  0  0  0  0
 19 49  1  0  0  0  0
 19 50  1  0  0  0  0
 20 21  2  0  0  0  0
 20 22  1  0  0  0  0
 22 26  1  0  0  0  0
 22 23  1  0  0  0  0
 23 24  1  0  0  0  0
 23 51  1  0  0  0  0
 23 52  1  0  0  0  0
 24 25  1  0  0  0  0
 24 53  1  0  0  0  0
 24 54  1  0  0  0  0
 25 26  1  0  0  0  0
 25 55  1  0  0  0  0
 25 56  1  0  0  0  0
 26 57  1  0  0  0  0
 26 58  1  0  0  0  0
 27 32  2  0  0  0  0
 27 28  1  0  0  0  0
 28 29  2  0  0  0  0
 28 59  1  0  0  0  0
 29 30  1  0  0  0  0
 29 60  1  0  0  0  0
 30 31  2  0  0  0  0
 30 33  1  0  0  0  0
 31 32  1  0  0  0  0
 32 61  1  0  0  0  0
 33 34  1  0  0  0  0
 34 62  1  0  0  0  0
 34 63  1  0  0  0  0
 34 64  1  0  0  0  0
M  END
$$$$
CHEMBL361136
  -OEChem-07121202283D

 41 44  0     0  0  0  0  0  0999 V2000
   -0.0187    1.5258    0.0104 C   0  0  0  0  0  0  0  0  0  0  0  0
    0.0021   -0.0041    0.0020 C   0  0  0  0  0  0  0  0  0  0  0  0
    0.6709   -0.4649   -1.1737 O   0  0  0  0  0  0  0  0  0  0  0  0
    0.7766   -1.8082   -1.3359 C   0  0  0  0  0  0  0  0  0  0  0  0
    0.2436   -2.6680   -0.3880 C   0  0  0  0  0  0  0  0  0  0  0  0
    0.3518   -4.0349   -0.5543 C   0  0  0  0  0  0  0  0  0  0  0  0
    0.9918   -4.5569   -1.6662 C   0  0  0  0  0  0  0  0  0  0  0  0
    1.5271   -3.7165   -2.6186 C   0  0  0  0  0  0  0  0  0  0  0  0
    1.4199   -2.3322   -2.4652 C   0  0  0  0  0  0  0  0  0  0  0  0
    1.9856   -1.4269   -3.4837 C   0  0  0  0  0  0  0  0  0  0  0  0
    1.8765   -0.1278   -3.3146 N   0  0  0  0  0  0  0  0  0  0  0  0
    2.3735    0.7310   -4.2105 C   0  0  0  0  0  0  0  0  0  0  0  0
    3.0231    0.2456   -5.3517 C   0  0  0  0  0  0  0  0  0  0  0  0
    3.1348   -1.1562   -5.5243 C   0  0  0  0  0  0  0  0  0  0  0  0
    2.6131   -1.9628   -4.5734 N   0  0  0  0  0  0  0  0  0  0  0  0
    3.6920   -1.6230   -6.5028 O   0  0  0  0  0  0  0  0  0  0  0  0
    3.4203    1.3187   -6.0749 N   0  0  0  0  0  0  0  0  0  0  0  0
    3.0621    2.4092   -5.4609 C   0  0  0  0  0  0  0  0  0  0  0  0
    2.4120    2.0964   -4.3041 N   0  0  0  0  0  0  0  0  0  0  0  0
    1.8560    3.0472   -3.3382 C   0  0  0  0  0  0  0  0  0  0  0  0
    1.2258    4.2896   -3.9896 C   0  0  0  0  0  0  0  0  0  0  0  0
    1.8519    5.1085   -2.8484 C   0  0  0  0  0  0  0  0  0  0  0  0
    2.9052    3.9942   -2.7321 C   0  0  0  0  0  0  0  0  0  0  0  0
    1.0039    1.9031    0.0027 H   0  0  0  0  0  0  0  0  0  0  0  0
   -0.5459    1.8868   -0.8726 H   0  0  0  0  0  0  0  0  0  0  0  0
   -0.5289    1.8773    0.9072 H   0  0  0  0  0  0  0  0  0  0  0  0
    0.5293   -0.3651    0.8851 H   0  0  0  0  0  0  0  0  0  0  0  0
   -1.0205   -0.3814    0.0098 H   0  0  0  0  0  0  0  0  0  0  0  0
   -0.2567   -2.2685    0.4818 H   0  0  0  0  0  0  0  0  0  0  0  0
   -0.0648   -4.7006    0.1871 H   0  0  0  0  0  0  0  0  0  0  0  0
    1.0722   -5.6271   -1.7873 H   0  0  0  0  0  0  0  0  0  0  0  0
    2.0257   -4.1277   -3.4839 H   0  0  0  0  0  0  0  0  0  0  0  0
    2.6808   -2.9259   -4.6667 H   0  0  0  0  0  0  0  0  0  0  0  0
    3.2518    3.4118   -5.8148 H   0  0  0  0  0  0  0  0  0  0  0  0
    1.2168    2.5706   -2.5950 H   0  0  0  0  0  0  0  0  0  0  0  0
    1.6369    4.5237   -4.9715 H   0  0  0  0  0  0  0  0  0  0  0  0
    0.1359    4.2842   -3.9762 H   0  0  0  0  0  0  0  0  0  0  0  0
    2.2622    6.0652   -3.1717 H   0  0  0  0  0  0  0  0  0  0  0  0
    1.2106    5.1965   -1.9714 H   0  0  0  0  0  0  0  0  0  0  0  0
    3.1710    3.7503   -1.7035 H   0  0  0  0  0  0  0  0  0  0  0  0
    3.7754    4.1475   -3.3703 H   0  0  0  0  0  0  0  0  0  0  0  0
  1  2  1  0  0  0  0
  1 24  1  0  0  0  0
  1 25  1  0  0  0  0
  1 26  1  0  0  0  0
  2  3  1  0  0  0  0
  2 27  1  0  0  0  0
  2 28  1  0  0  0  0
  3  4  1  0  0  0  0
  4  9  2  0  0  0  0
  4  5  1  0  0  0  0
  5  6  2  0  0  0  0
  5 29  1  0  0  0  0
  6  7  1  0  0  0  0
  6 30  1  0  0  0  0
  7  8  2  0  0  0  0
  7 31  1  0  0  0  0
  8  9  1  0  0  0  0
  8 32  1  0  0  0  0
  9 10  1  0  0  0  0
 10 11  2  0  0  0  0
 10 15  1  0  0  0  0
 11 12  1  0  0  0  0
 12 19  1  0  0  0  0
 12 13  2  0  0  0  0
 13 14  1  0  0  0  0
 13 17  1  0  0  0  0
 14 15  1  0  0  0  0
 14 16  2  0  0  0  0
 15 33  1  0  0  0  0
 17 18  2  0  0  0  0
 18 34  1  0  0  0  0
 18 19  1  0  0  0  0
 19 20  1  0  0  0  0
 20 23  1  0  0  0  0
 20 21  1  0  0  0  0
 20 35  1  0  0  0  0
 21 22  1  0  0  0  0
 21 36  1  0  0  0  0
 21 37  1  0  0  0  0
 22 23  1  0  0  0  0
 22 38  1  0  0  0  0
 22 39  1  0  0  0  0
 23 40  1  0  0  0  0
 23 41  1  0  0  0  0
M  END
$$$$
CHEMBL539266
  -OEChem-07121202283D

 70 74  0     0  0  0  0  0  0999 V2000
   -0.1360    1.2674   -0.4767 C   0  0  0  0  0  0  0  0  0  0  0  0
   -0.1499   -0.1476   -0.6757 O   0  0  0  0  0  0  0  0  0  0  0  0
   -1.3607   -0.7654   -0.6314 C   0  0  0  0  0  0  0  0  0  0  0  0
   -2.5067   -0.0244   -0.4074 C   0  0  0  0  0  0  0  0  0  0  0  0
   -3.7496   -0.6594   -0.3621 C   0  0  0  0  0  0  0  0  0  0  0  0
   -3.8320   -2.0416   -0.5432 C   0  0  0  0  0  0  0  0  0  0  0  0
   -2.6830   -2.7782   -0.7669 C   0  0  0  0  0  0  0  0  0  0  0  0
   -1.4460   -2.1421   -0.8173 C   0  0  0  0  0  0  0  0  0  0  0  0
   -0.3183   -2.8678   -1.0433 O   0  0  0  0  0  0  0  0  0  0  0  0
    0.3566   -3.3916    0.1022 C   0  0  0  0  0  0  0  0  0  0  0  0
   -2.7625   -4.1243   -0.9433 O   0  0  0  0  0  0  0  0  0  0  0  0
   -4.0644   -4.7105   -0.8850 C   0  0  0  0  0  0  0  0  0  0  0  0
   -4.9758    0.1301   -0.1224 C   0  0  0  0  0  0  0  0  0  0  0  0
   -5.1767    0.8236    1.1568 C   0  0  0  0  0  0  0  0  0  0  0  0
   -4.2278    0.7653    2.1844 C   0  0  0  0  0  0  0  0  0  0  0  0
   -4.4922    1.4409    3.3455 C   0  0  0  0  0  0  0  0  0  0  0  0
   -5.6834    2.1590    3.4716 C   0  0  0  0  0  0  0  0  0  0  0  0
   -6.5674    2.2036    2.4929 N   0  0  0  0  0  0  0  0  0  0  0  0
   -6.3589    1.5663    1.3475 C   0  0  0  0  0  0  0  0  0  0  0  0
   -7.3438    1.6140    0.2515 C   0  0  0  0  0  0  0  0  0  0  0  0
   -8.3744    2.2474    0.3859 O   0  0  0  0  0  0  0  0  0  0  0  0
   -7.1021    0.9569   -0.8979 N   0  0  0  0  0  0  0  0  0  0  0  0
   -5.9470    0.2307   -1.1012 C   0  0  0  0  0  0  0  0  0  0  0  0
   -5.7476   -0.4553   -2.3823 C   0  0  0  0  0  0  0  0  0  0  0  0
   -4.7901   -1.1888   -2.5366 O   0  0  0  0  0  0  0  0  0  0  0  0
   -6.6266   -0.2725   -3.3893 O   0  0  0  0  0  0  0  0  0  0  0  0
   -6.3704   -0.9718   -4.6089 C   0  0  0  0  0  0  0  0  0  0  0  0
   -8.0966    1.0201   -1.9717 C   0  0  0  0  0  0  0  0  0  0  0  0
   -7.8864    2.2759   -2.7779 C   0  0  0  0  0  0  0  0  0  0  0  0
   -8.4356    3.4787   -2.3599 C   0  0  0  0  0  0  0  0  0  0  0  0
   -8.2162    4.6082   -3.1331 C   0  0  0  0  0  0  0  0  0  0  0  0
   -7.4626    4.4988   -4.2868 C   0  0  0  0  0  0  0  0  0  0  0  0
   -6.9560    3.3381   -4.6539 N   0  0  0  0  0  0  0  0  0  0  0  0
   -7.1392    2.2445   -3.9398 C   0  0  0  0  0  0  0  0  0  0  0  0
   -5.9373    2.8246    4.6251 O   0  0  0  0  0  0  0  0  0  0  0  0
   -7.1701    3.5432    4.7016 C   0  0  0  0  0  0  0  0  0  0  0  0
   -7.2775    4.2147    6.0465 C   0  0  0  0  0  0  0  0  0  0  0  0
   -6.2544    4.0720    6.9649 C   0  0  0  0  0  0  0  0  0  0  0  0
   -6.3631    4.6937    8.1992 C   0  0  0  0  0  0  0  0  0  0  0  0
   -7.5019    5.4391    8.4647 C   0  0  0  0  0  0  0  0  0  0  0  0
   -8.4836    5.5367    7.4971 C   0  0  0  0  0  0  0  0  0  0  0  0
   -8.3439    4.9359    6.3314 N   0  0  0  0  0  0  0  0  0  0  0  0
    0.8892    1.6327   -0.5365 H   0  0  0  0  0  0  0  0  0  0  0  0
   -0.7387    1.7486   -1.2469 H   0  0  0  0  0  0  0  0  0  0  0  0
   -0.5479    1.5003    0.5053 H   0  0  0  0  0  0  0  0  0  0  0  0
   -2.4404    1.0445   -0.2673 H   0  0  0  0  0  0  0  0  0  0  0  0
   -4.7920   -2.5350   -0.5082 H   0  0  0  0  0  0  0  0  0  0  0  0
    1.2373   -3.9482   -0.2181 H   0  0  0  0  0  0  0  0  0  0  0  0
    0.6617   -2.5706    0.7510 H   0  0  0  0  0  0  0  0  0  0  0  0
   -0.3145   -4.0554    0.6472 H   0  0  0  0  0  0  0  0  0  0  0  0
   -4.6938   -4.2756   -1.6615 H   0  0  0  0  0  0  0  0  0  0  0  0
   -3.9858   -5.7864   -1.0411 H   0  0  0  0  0  0  0  0  0  0  0  0
   -4.5068   -4.5165    0.0922 H   0  0  0  0  0  0  0  0  0  0  0  0
   -3.3134    0.2032    2.0647 H   0  0  0  0  0  0  0  0  0  0  0  0
   -3.7834    1.4182    4.1600 H   0  0  0  0  0  0  0  0  0  0  0  0
   -7.1506   -0.7370   -5.3330 H   0  0  0  0  0  0  0  0  0  0  0  0
   -5.4023   -0.6668   -5.0062 H   0  0  0  0  0  0  0  0  0  0  0  0
   -6.3631   -2.0449   -4.4178 H   0  0  0  0  0  0  0  0  0  0  0  0
   -7.9878    0.1501   -2.6194 H   0  0  0  0  0  0  0  0  0  0  0  0
   -9.0974    1.0288   -1.5400 H   0  0  0  0  0  0  0  0  0  0  0  0
   -9.0206    3.5341   -1.4538 H   0  0  0  0  0  0  0  0  0  0  0  0
   -8.6291    5.5615   -2.8380 H   0  0  0  0  0  0  0  0  0  0  0  0
   -7.2871    5.3740   -4.8947 H   0  0  0  0  0  0  0  0  0  0  0  0
   -6.7040    1.3126   -4.2696 H   0  0  0  0  0  0  0  0  0  0  0  0
   -7.2003    4.2976    3.9154 H   0  0  0  0  0  0  0  0  0  0  0  0
   -8.0025    2.8513    4.5734 H   0  0  0  0  0  0  0  0  0  0  0  0
   -5.3815    3.4833    6.7241 H   0  0  0  0  0  0  0  0  0  0  0  0
   -5.5796    4.5995    8.9365 H   0  0  0  0  0  0  0  0  0  0  0  0
   -7.6202    5.9368    9.4159 H   0  0  0  0  0  0  0  0  0  0  0  0
   -9.3735    6.1153    7.6962 H   0  0  0  0  0  0  0  0  0  0  0  0
  1  2  1  0  0  0  0
  1 43  1  0  0  0  0
  1 44  1  0  0  0  0
  1 45  1  0  0  0  0
  2  3  1  0  0  0  0
  3  8  2  0  0  0  0
  3  4  1  0  0  0  0
  4  5  2  0  0  0  0
  4 46  1  0  0  0  0
  5  6  1  0  0  0  0
  5 13  1  0  0  0  0
  6  7  2  0  0  0  0
  6 47  1  0  0  0  0
  7  8  1  0  0  0  0
  7 11  1  0  0  0  0
  8  9  1  0  0  0  0
  9 10  1  0  0  0  0
 10 48  1  0  0  0  0
 10 49  1  0  0  0  0
 10 50  1  0  0  0  0
 11 12  1  0  0  0  0
 12 51  1  0  0  0  0
 12 52  1  0  0  0  0
 12 53  1  0  0  0  0
 13 23  2  0  0  0  0
 13 14  1  0  0  0  0
 14 19  2  0  0  0  0
 14 15  1  0  0  0  0
 15 16  2  0  0  0  0
 15 54  1  0  0  0  0
 16 17  1  0  0  0  0
 16 55  1  0  0  0  0
 17 18  2  0  0  0  0
 17 35  1  0  0  0  0
 18 19  1  0  0  0  0
 19 20  1  0  0  0  0
 20 21  2  0  0  0  0
 20 22  1  0  0  0  0
 22 23  1  0  0  0  0
 22 28  1  0  0  0  0
 23 24  1  0  0  0  0
 24 25  2  0  0  0  0
 24 26  1  0  0  0  0
 26 27  1  0  0  0  0
 27 56  1  0  0  0  0
 27 57  1  0  0  0  0
 27 58  1  0  0  0  0
 28 29  1  0  0  0  0
 28 59  1  0  0  0  0
 28 60  1  0  0  0  0
 29 34  2  0  0  0  0
 29 30  1  0  0  0  0
 30 31  2  0  0  0  0
 30 61  1  0  0  0  0
 31 32  1  0  0  0  0
 31 62  1  0  0  0  0
 32 33  2  0  0  0  0
 32 63  1  0  0  0  0
 33 34  1  0  0  0  0
 34 64  1  0  0  0  0
 35 36  1  0  0  0  0
 36 37  1  0  0  0  0
 36 65  1  0  0  0  0
 36 66  1  0  0  0  0
 37 42  2  0  0  0  0
 37 38  1  0  0  0  0
 38 39  2  0  0  0  0
 38 67  1  0  0  0  0
 39 40  1  0  0  0  0
 39 68  1  0  0  0  0
 40 41  2  0  0  0  0
 40 69  1  0  0  0  0
 41 42  1  0  0  0  0
 41 70  1  0  0  0  0
M  END
$$$$
CHEMBL351744
  -OEChem-07121202283D

 62 68  0     1  0  0  0  0  0999 V2000
    0.5382    1.4005    0.4081 C   0  0  0  0  0  0  0  0  0  0  0  0
    0.2121   -0.0677    0.3134 C   0  0  0  0  0  0  0  0  0  0  0  0
   -0.2770   -0.6698   -0.7368 N   0  3  0  0  0  0  0  0  0  0  0  0
   -0.4428   -1.9709   -0.4702 C   0  0  0  0  0  0  0  0  0  0  0  0
   -0.0368   -2.1904    0.8096 C   0  0  0  0  0  0  0  0  0  0  0  0
    0.3841   -0.9754    1.2999 N   0  0  0  0  0  0  0  0  0  0  0  0
    0.9152   -0.7143    2.6401 C   0  0  0  0  0  0  0  0  0  0  0  0
   -0.0412   -3.4824    1.5303 C   0  0  0  0  0  0  0  0  0  0  0  0
    0.0215   -3.5250    2.9272 C   0  0  0  0  0  0  0  0  0  0  0  0
    0.0148   -4.6988    3.5336 N   0  0  0  0  0  0  0  0  0  0  0  0
   -0.0500   -5.8242    2.8368 C   0  0  0  0  0  0  0  0  0  0  0  0
   -0.1102   -5.8256    1.5129 N   0  0  0  0  0  0  0  0  0  0  0  0
   -0.1140   -4.6929    0.8329 C   0  0  0  0  0  0  0  0  0  0  0  0
   -0.0546   -7.0330    3.5112 N   0  0  0  0  0  0  0  0  0  0  0  0
    0.0051   -7.0775    4.9800 C   0  0  0  0  0  0  0  0  0  0  0  0
   -1.2988   -7.6836    5.5130 C   0  0  0  0  0  0  0  0  0  0  0  0
   -1.6400   -8.9055    4.6991 C   0  0  0  0  0  0  0  0  0  0  0  0
   -2.5504   -9.9818    5.0345 C   0  0  0  0  0  0  0  0  0  0  0  0
   -3.3577  -10.2273    6.1494 C   0  0  0  0  0  0  0  0  0  0  0  0
   -4.1110  -11.3751    6.1293 C   0  0  0  0  0  0  0  0  0  0  0  0
   -4.0813  -12.2563    5.0608 C   0  0  0  0  0  0  0  0  0  0  0  0
   -3.2923  -12.0378    3.9448 C   0  0  0  0  0  0  0  0  0  0  0  0
   -2.5165  -10.8804    3.9374 C   0  0  0  0  0  0  0  0  0  0  0  0
   -1.6462  -10.3677    3.0190 N   0  0  0  0  0  0  0  0  0  0  0  0
   -1.4294  -10.7764    2.1665 H   0  0  0  0  0  0  0  0  0  0  0  0
   -1.1257   -9.1890    3.4828 C   0  0  0  0  0  0  0  0  0  0  0  0
   -0.1256   -8.3077    2.7765 C   0  0  2  0  0  0  0  0  0  0  0  0
    1.2263   -8.9737    2.7753 C   0  0  0  0  0  0  0  0  0  0  0  0
    1.7987   -9.3838    3.9654 C   0  0  0  0  0  0  0  0  0  0  0  0
    3.0339   -9.9976    3.9696 C   0  0  0  0  0  0  0  0  0  0  0  0
    3.7159  -10.2096    2.7738 C   0  0  0  0  0  0  0  0  0  0  0  0
    3.1341   -9.7866    1.5857 C   0  0  0  0  0  0  0  0  0  0  0  0
    1.8964   -9.1820    1.5830 C   0  0  0  0  0  0  0  0  0  0  0  0
    4.1046  -10.1245    0.4706 C   0  0  0  0  0  0  0  0  0  0  0  0
    5.4085  -10.4040    1.2550 C   0  0  0  0  0  0  0  0  0  0  0  0
    4.9226  -10.7986    2.5494 O   0  0  0  0  0  0  0  0  0  0  0  0
    1.5680    1.5652    0.0909 H   0  0  0  0  0  0  0  0  0  0  0  0
   -0.1353    1.9646   -0.2370 H   0  0  0  0  0  0  0  0  0  0  0  0
    0.4178    1.7336    1.4390 H   0  0  0  0  0  0  0  0  0  0  0  0
   -0.8305   -2.7147   -1.1505 H   0  0  0  0  0  0  0  0  0  0  0  0
    0.0894   -0.5601    3.3345 H   0  0  0  0  0  0  0  0  0  0  0  0
    1.5108   -1.5666    2.9673 H   0  0  0  0  0  0  0  0  0  0  0  0
    1.5408    0.1780    2.6155 H   0  0  0  0  0  0  0  0  0  0  0  0
    0.0748   -2.6118    3.5014 H   0  0  0  0  0  0  0  0  0  0  0  0
   -0.1682   -4.7014   -0.2457 H   0  0  0  0  0  0  0  0  0  0  0  0
    0.8483   -7.6934    5.2925 H   0  0  0  0  0  0  0  0  0  0  0  0
    0.1245   -6.0671    5.3711 H   0  0  0  0  0  0  0  0  0  0  0  0
   -1.1695   -7.9657    6.5579 H   0  0  0  0  0  0  0  0  0  0  0  0
   -2.1026   -6.9523    5.4278 H   0  0  0  0  0  0  0  0  0  0  0  0
   -3.3872   -9.5463    6.9871 H   0  0  0  0  0  0  0  0  0  0  0  0
   -4.7466  -11.5981    6.9735 H   0  0  0  0  0  0  0  0  0  0  0  0
   -4.6952  -13.1441    5.0998 H   0  0  0  0  0  0  0  0  0  0  0  0
   -3.2782  -12.7327    3.1182 H   0  0  0  0  0  0  0  0  0  0  0  0
   -0.4509   -8.1268    1.7520 H   0  0  0  0  0  0  0  0  0  0  0  0
    1.2761   -9.2223    4.8966 H   0  0  0  0  0  0  0  0  0  0  0  0
    3.4737  -10.3154    4.9034 H   0  0  0  0  0  0  0  0  0  0  0  0
    1.4510   -8.8674    0.6509 H   0  0  0  0  0  0  0  0  0  0  0  0
    3.7795  -11.0114   -0.0733 H   0  0  0  0  0  0  0  0  0  0  0  0
    4.2305   -9.2790   -0.2057 H   0  0  0  0  0  0  0  0  0  0  0  0
    5.9723  -11.2133    0.7910 H   0  0  0  0  0  0  0  0  0  0  0  0
    6.0156   -9.5018    1.3289 H   0  0  0  0  0  0  0  0  0  0  0  0
   -0.4883   -0.2401   -1.5804 H   0  0  0  0  0  0  0  0  0  0  0  0
  1  2  1  0  0  0  0
  1 37  1  0  0  0  0
  1 38  1  0  0  0  0
  1 39  1  0  0  0  0
  2  6  1  0  0  0  0
  2  3  2  0  0  0  0
  3  4  1  0  0  0  0
  3 62  1  0  0  0  0
  4  5  2  0  0  0  0
  4 40  1  0  0  0  0
  5  6  1  0  0  0  0
  5  8  1  0  0  0  0
  6  7  1  0  0  0  0
  7 41  1  0  0  0  0
  7 42  1  0  0  0  0
  7 43  1  0  0  0  0
  8 13  2  0  0  0  0
  8  9  1  0  0  0  0
  9 10  2  0  0  0  0
  9 44  1  0  0  0  0
 10 11  1  0  0  0  0
 11 12  2  0  0  0  0
 11 14  1  0  0  0  0
 12 13  1  0  0  0  0
 13 45  1  0  0  0  0
 14 27  1  0  0  0  0
 14 15  1  0  0  0  0
 15 16  1  0  0  0  0
 15 46  1  0  0  0  0
 15 47  1  0  0  0  0
 16 17  1  0  0  0  0
 16 48  1  0  0  0  0
 16 49  1  0  0  0  0
 17 26  2  0  0  0  0
 17 18  1  0  0  0  0
 18 23  2  0  0  0  0
 18 19  1  0  0  0  0
 19 20  2  0  0  0  0
 19 50  1  0  0  0  0
 20 21  1  0  0  0  0
 20 51  1  0  0  0  0
 21 22  2  0  0  0  0
 21 52  1  0  0  0  0
 22 23  1  0  0  0  0
 22 53  1  0  0  0  0
 23 24  1  0  0  0  0
 24 25  1  0  0  0  0
 24 26  1  0  0  0  0
 26 27  1  0  0  0  0
 27 28  1  0  0  0  0
 27 54  1  0  0  0  0
 28 33  2  0  0  0  0
 28 29  1  0  0  0  0
 29 30  2  0  0  0  0
 29 55  1  0  0  0  0
 30 31  1  0  0  0  0
 30 56  1  0  0  0  0
 31 36  1  0  0  0  0
 31 32  2  0  0  0  0
 32 33  1  0  0  0  0
 32 34  1  0  0  0  0
 33 57  1  0  0  0  0
 34 35  1  0  0  0  0
 34 58  1  0  0  0  0
 34 59  1  0  0  0  0
 35 36  1  0  0  0  0
 35 60  1  0  0  0  0
 35 61  1  0  0  0  0
M  CHG  1   3   1
M  END
$$$$
CHEMBL351744
  -OEChem-07121202283D

 61 67  0     1  0  0  0  0  0999 V2000
    0.5382    1.4005    0.4081 C   0  0  0  0  0  0  0  0  0  0  0  0
    0.2121   -0.0677    0.3134 C   0  0  0  0  0  0  0  0  0  0  0  0
   -0.2770   -0.6698   -0.7368 N   0  0  0  0  0  0  0  0  0  0  0  0
   -0.4428   -1.9709   -0.4702 C   0  0  0  0  0  0  0  0  0  0  0  0
   -0.0368   -2.1904    0.8096 C   0  0  0  0  0  0  0  0  0  0  0  0
    0.3841   -0.9754    1.2999 N   0  0  0  0  0  0  0  0  0  0  0  0
    0.9152   -0.7143    2.6401 C   0  0  0  0  0  0  0  0  0  0  0  0
   -0.0412   -3.4824    1.5303 C   0  0  0  0  0  0  0  0  0  0  0  0
    0.0215   -3.5250    2.9272 C   0  0  0  0  0  0  0  0  0  0  0  0
    0.0148   -4.6988    3.5336 N   0  0  0  0  0  0  0  0  0  0  0  0
   -0.0500   -5.8242    2.8368 C   0  0  0  0  0  0  0  0  0  0  0  0
   -0.1102   -5.8256    1.5129 N   0  0  0  0  0  0  0  0  0  0  0  0
   -0.1140   -4.6929    0.8329 C   0  0  0  0  0  0  0  0  0  0  0  0
   -0.0546   -7.0330    3.5112 N   0  0  0  0  0  0  0  0  0  0  0  0
    0.0051   -7.0775    4.9800 C   0  0  0  0  0  0  0  0  0  0  0  0
   -1.2988   -7.6836    5.5130 C   0  0  0  0  0  0  0  0  0  0  0  0
   -1.6400   -8.9055    4.6991 C   0  0  0  0  0  0  0  0  0  0  0  0
   -2.5504   -9.9818    5.0345 C   0  0  0  0  0  0  0  0  0  0  0  0
   -3.3577  -10.2273    6.1494 C   0  0  0  0  0  0  0  0  0  0  0  0
   -4.1110  -11.3751    6.1293 C   0  0  0  0  0  0  0  0  0  0  0  0
   -4.0813  -12.2563    5.0608 C   0  0  0  0  0  0  0  0  0  0  0  0
   -3.2923  -12.0378    3.9448 C   0  0  0  0  0  0  0  0  0  0  0  0
   -2.5165  -10.8804    3.9374 C   0  0  0  0  0  0  0  0  0  0  0  0
   -1.6462  -10.3677    3.0190 N   0  0  0  0  0  0  0  0  0  0  0  0
   -1.4294  -10.7764    2.1665 H   0  0  0  0  0  0  0  0  0  0  0  0
   -1.1257   -9.1890    3.4828 C   0  0  0  0  0  0  0  0  0  0  0  0
   -0.1256   -8.3077    2.7765 C   0  0  2  0  0  0  0  0  0  0  0  0
    1.2263   -8.9737    2.7753 C   0  0  0  0  0  0  0  0  0  0  0  0
    1.7987   -9.3838    3.9654 C   0  0  0  0  0  0  0  0  0  0  0  0
    3.0339   -9.9976    3.9696 C   0  0  0  0  0  0  0  0  0  0  0  0
    3.7159  -10.2096    2.7738 C   0  0  0  0  0  0  0  0  0  0  0  0
    3.1341   -9.7866    1.5857 C   0  0  0  0  0  0  0  0  0  0  0  0
    1.8964   -9.1820    1.5830 C   0  0  0  0  0  0  0  0  0  0  0  0
    4.1046  -10.1245    0.4706 C   0  0  0  0  0  0  0  0  0  0  0  0
    5.4085  -10.4040    1.2550 C   0  0  0  0  0  0  0  0  0  0  0  0
    4.9226  -10.7986    2.5494 O   0  0  0  0  0  0  0  0  0  0  0  0
    1.5680    1.5652    0.0909 H   0  0  0  0  0  0  0  0  0  0  0  0
   -0.1353    1.9646   -0.2370 H   0  0  0  0  0  0  0  0  0  0  0  0
    0.4178    1.7336    1.4390 H   0  0  0  0  0  0  0  0  0  0  0  0
   -0.8305   -2.7147   -1.1505 H   0  0  0  0  0  0  0  0  0  0  0  0
    0.0894   -0.5601    3.3345 H   0  0  0  0  0  0  0  0  0  0  0  0
    1.5108   -1.5666    2.9673 H   0  0  0  0  0  0  0  0  0  0  0  0
    1.5408    0.1780    2.6155 H   0  0  0  0  0  0  0  0  0  0  0  0
    0.0748   -2.6118    3.5014 H   0  0  0  0  0  0  0  0  0  0  0  0
   -0.1682   -4.7014   -0.2457 H   0  0  0  0  0  0  0  0  0  0  0  0
    0.8483   -7.6934    5.2925 H   0  0  0  0  0  0  0  0  0  0  0  0
    0.1245   -6.0671    5.3711 H   0  0  0  0  0  0  0  0  0  0  0  0
   -1.1695   -7.9657    6.5579 H   0  0  0  0  0  0  0  0  0  0  0  0
   -2.1026   -6.9523    5.4278 H   0  0  0  0  0  0  0  0  0  0  0  0
   -3.3872   -9.5463    6.9871 H   0  0  0  0  0  0  0  0  0  0  0  0
   -4.7466  -11.5981    6.9735 H   0  0  0  0  0  0  0  0  0  0  0  0
   -4.6952  -13.1441    5.0998 H   0  0  0  0  0  0  0  0  0  0  0  0
   -3.2782  -12.7327    3.1182 H   0  0  0  0  0  0  0  0  0  0  0  0
   -0.4509   -8.1268    1.7520 H   0  0  0  0  0  0  0  0  0  0  0  0
    1.2761   -9.2223    4.8966 H   0  0  0  0  0  0  0  0  0  0  0  0
    3.4737  -10.3154    4.9034 H   0  0  0  0  0  0  0  0  0  0  0  0
    1.4510   -8.8674    0.6509 H   0  0  0  0  0  0  0  0  0  0  0  0
    3.7795  -11.0114   -0.0733 H   0  0  0  0  0  0  0  0  0  0  0  0
    4.2305   -9.2790   -0.2057 H   0  0  0  0  0  0  0  0  0  0  0  0
    5.9723  -11.2133    0.7910 H   0  0  0  0  0  0  0  0  0  0  0  0
    6.0156   -9.5018    1.3289 H   0  0  0  0  0  0  0  0  0  0  0  0
  1  2  1  0  0  0  0
  1 37  1  0  0  0  0
  1 38  1  0  0  0  0
  1 39  1  0  0  0  0
  2  6  1  0  0  0  0
  2  3  2  0  0  0  0
  3  4  1  0  0  0  0
  4  5  2  0  0  0  0
  4 40  1  0  0  0  0
  5  6  1  0  0  0  0
  5  8  1  0  0  0  0
  6  7  1  0  0  0  0
  7 41  1  0  0  0  0
  7 42  1  0  0  0  0
  7 43  1  0  0  0  0
  8 13  2  0  0  0  0
  8  9  1  0  0  0  0
  9 10  2  0  0  0  0
  9 44  1  0  0  0  0
 10 11  1  0  0  0  0
 11 12  2  0  0  0  0
 11 14  1  0  0  0  0
 12 13  1  0  0  0  0
 13 45  1  0  0  0  0
 14 27  1  0  0  0  0
 14 15  1  0  0  0  0
 15 16  1  0  0  0  0
 15 46  1  0  0  0  0
 15 47  1  0  0  0  0
 16 17  1  0  0  0  0
 16 48  1  0  0  0  0
 16 49  1  0  0  0  0
 17 26  2  0  0  0  0
 17 18  1  0  0  0  0
 18 23  2  0  0  0  0
 18 19  1  0  0  0  0
 19 20  2  0  0  0  0
 19 50  1  0  0  0  0
 20 21  1  0  0  0  0
 20 51  1  0  0  0  0
 21 22  2  0  0  0  0
 21 52  1  0  0  0  0
 22 23  1  0  0  0  0
 22 53  1  0  0  0  0
 23 24  1  0  0  0  0
 24 25  1  0  0  0  0
 24 26  1  0  0  0  0
 26 27  1  0  0  0  0
 27 28  1  0  0  0  0
 27 54  1  0  0  0  0
 28 33  2  0  0  0  0
 28 29  1  0  0  0  0
 29 30  2  0  0  0  0
 29 55  1  0  0  0  0
 30 31  1  0  0  0  0
 30 56  1  0  0  0  0
 31 36  1  0  0  0  0
 31 32  2  0  0  0  0
 32 33  1  0  0  0  0
 32 34  1  0  0  0  0
 33 57  1  0  0  0  0
 34 35  1  0  0  0  0
 34 58  1  0  0  0  0
 34 59  1  0  0  0  0
 35 36  1  0  0  0  0
 35 60  1  0  0  0  0
 35 61  1  0  0  0  0
M  END
$$$$
CHEMBL351744
  -OEChem-07121202283D

 62 68  0     1  0  0  0  0  0999 V2000
    0.6547    0.8918   -1.3504 C   0  0  0  0  0  0  0  0  0  0  0  0
    0.3892   -0.5766   -1.1404 C   0  0  0  0  0  0  0  0  0  0  0  0
    0.0573   -1.4283   -2.0727 N   0  3  0  0  0  0  0  0  0  0  0  0
   -0.1007   -2.6431   -1.5336 C   0  0  0  0  0  0  0  0  0  0  0  0
    0.1450   -2.5435   -0.1993 C   0  0  0  0  0  0  0  0  0  0  0  0
    0.4618   -1.2263    0.0425 N   0  0  0  0  0  0  0  0  0  0  0  0
    0.8088   -0.6382    1.3387 C   0  0  0  0  0  0  0  0  0  0  0  0
    0.0886   -3.6373    0.7953 C   0  0  0  0  0  0  0  0  0  0  0  0
   -0.0210   -3.3596    2.1619 C   0  0  0  0  0  0  0  0  0  0  0  0
   -0.0688   -4.3644    3.0184 N   0  0  0  0  0  0  0  0  0  0  0  0
   -0.0144   -5.6200    2.5978 C   0  0  0  0  0  0  0  0  0  0  0  0
    0.0899   -5.9239    1.3121 N   0  0  0  0  0  0  0  0  0  0  0  0
    0.1377   -4.9762    0.3929 C   0  0  0  0  0  0  0  0  0  0  0  0
   -0.0676   -6.6434    3.5283 N   0  0  0  0  0  0  0  0  0  0  0  0
   -0.1889   -6.3514    4.9646 C   0  0  0  0  0  0  0  0  0  0  0  0
    1.0762   -6.8398    5.6805 C   0  0  0  0  0  0  0  0  0  0  0  0
    1.4199   -8.2200    5.1814 C   0  0  0  0  0  0  0  0  0  0  0  0
    2.2883   -9.2053    5.7936 C   0  0  0  0  0  0  0  0  0  0  0  0
    3.0420   -9.2029    6.9713 C   0  0  0  0  0  0  0  0  0  0  0  0
    3.7657  -10.3367    7.2471 C   0  0  0  0  0  0  0  0  0  0  0  0
    3.7580  -11.4375    6.4061 C   0  0  0  0  0  0  0  0  0  0  0  0
    3.0220  -11.4667    5.2343 C   0  0  0  0  0  0  0  0  0  0  0  0
    2.2771  -10.3295    4.9286 C   0  0  0  0  0  0  0  0  0  0  0  0
    1.4586  -10.0262    3.8789 N   0  0  0  0  0  0  0  0  0  0  0  0
    1.2668  -10.6152    3.1324 H   0  0  0  0  0  0  0  0  0  0  0  0
    0.9493   -8.7651    4.0388 C   0  0  0  0  0  0  0  0  0  0  0  0
   -0.0102   -8.0531    3.1050 C   0  0  1  0  0  0  0  0  0  0  0  0
   -1.3805   -8.6728    3.2021 C   0  0  0  0  0  0  0  0  0  0  0  0
   -1.9986   -8.8003    4.4325 C   0  0  0  0  0  0  0  0  0  0  0  0
   -3.2545   -9.3629    4.5265 C   0  0  0  0  0  0  0  0  0  0  0  0
   -3.9112   -9.8080    3.3817 C   0  0  0  0  0  0  0  0  0  0  0  0
   -3.2771   -9.6813    2.1526 C   0  0  0  0  0  0  0  0  0  0  0  0
   -2.0267   -9.1109    2.0600 C   0  0  0  0  0  0  0  0  0  0  0  0
   -4.2095  -10.2654    1.1091 C   0  0  0  0  0  0  0  0  0  0  0  0
   -5.2106  -11.0582    1.9825 C   0  0  0  0  0  0  0  0  0  0  0  0
   -5.1415  -10.3747    3.2455 O   0  0  0  0  0  0  0  0  0  0  0  0
    1.7109    1.0418   -1.5741 H   0  0  0  0  0  0  0  0  0  0  0  0
    0.0520    1.2546   -2.1831 H   0  0  0  0  0  0  0  0  0  0  0  0
    0.3932    1.4413   -0.4461 H   0  0  0  0  0  0  0  0  0  0  0  0
   -0.3749   -3.5431   -2.0640 H   0  0  0  0  0  0  0  0  0  0  0  0
   -0.1035   -0.3805    1.8767 H   0  0  0  0  0  0  0  0  0  0  0  0
    1.3836   -1.3576    1.9219 H   0  0  0  0  0  0  0  0  0  0  0  0
    1.4044    0.2611    1.1819 H   0  0  0  0  0  0  0  0  0  0  0  0
   -0.0655   -2.3388    2.5118 H   0  0  0  0  0  0  0  0  0  0  0  0
    0.2177   -5.2313   -0.6535 H   0  0  0  0  0  0  0  0  0  0  0  0
   -0.2989   -5.2768    5.1105 H   0  0  0  0  0  0  0  0  0  0  0  0
   -1.0595   -6.8673    5.3696 H   0  0  0  0  0  0  0  0  0  0  0  0
    1.9010   -6.1594    5.4686 H   0  0  0  0  0  0  0  0  0  0  0  0
    0.8969   -6.8746    6.7550 H   0  0  0  0  0  0  0  0  0  0  0  0
    3.0545   -8.3493    7.6328 H   0  0  0  0  0  0  0  0  0  0  0  0
    4.3603  -10.3712    8.1480 H   0  0  0  0  0  0  0  0  0  0  0  0
    4.3467  -12.3025    6.6739 H   0  0  0  0  0  0  0  0  0  0  0  0
    3.0244  -12.3313    4.5871 H   0  0  0  0  0  0  0  0  0  0  0  0
    0.3541   -8.1171    2.0796 H   0  0  0  0  0  0  0  0  0  0  0  0
   -1.4953   -8.4579    5.3246 H   0  0  0  0  0  0  0  0  0  0  0  0
   -3.7305   -9.4582    5.4912 H   0  0  0  0  0  0  0  0  0  0  0  0
   -1.5495   -9.0091    1.0965 H   0  0  0  0  0  0  0  0  0  0  0  0
   -4.7167   -9.4760    0.5544 H   0  0  0  0  0  0  0  0  0  0  0  0
   -3.6708  -10.9299    0.4336 H   0  0  0  0  0  0  0  0  0  0  0  0
   -6.2164  -11.0000    1.5664 H   0  0  0  0  0  0  0  0  0  0  0  0
   -4.8943  -12.0960    2.0871 H   0  0  0  0  0  0  0  0  0  0  0  0
   -0.0576   -1.2135   -3.0116 H   0  0  0  0  0  0  0  0  0  0  0  0
  1  2  1  0  0  0  0
  1 37  1  0  0  0  0
  1 38  1  0  0  0  0
  1 39  1  0  0  0  0
  2  6  1  0  0  0  0
  2  3  2  0  0  0  0
  3  4  1  0  0  0  0
  3 62  1  0  0  0  0
  4  5  2  0  0  0  0
  4 40  1  0  0  0  0
  5  6  1  0  0  0  0
  5  8  1  0  0  0  0
  6  7  1  0  0  0  0
  7 41  1  0  0  0  0
  7 42  1  0  0  0  0
  7 43  1  0  0  0  0
  8 13  2  0  0  0  0
  8  9  1  0  0  0  0
  9 10  2  0  0  0  0
  9 44  1  0  0  0  0
 10 11  1  0  0  0  0
 11 12  2  0  0  0  0
 11 14  1  0  0  0  0
 12 13  1  0  0  0  0
 13 45  1  0  0  0  0
 14 27  1  0  0  0  0
 14 15  1  0  0  0  0
 15 16  1  0  0  0  0
 15 46  1  0  0  0  0
 15 47  1  0  0  0  0
 16 17  1  0  0  0  0
 16 48  1  0  0  0  0
 16 49  1  0  0  0  0
 17 26  2  0  0  0  0
 17 18  1  0  0  0  0
 18 23  2  0  0  0  0
 18 19  1  0  0  0  0
 19 20  2  0  0  0  0
 19 50  1  0  0  0  0
 20 21  1  0  0  0  0
 20 51  1  0  0  0  0
 21 22  2  0  0  0  0
 21 52  1  0  0  0  0
 22 23  1  0  0  0  0
 22 53  1  0  0  0  0
 23 24  1  0  0  0  0
 24 25  1  0  0  0  0
 24 26  1  0  0  0  0
 26 27  1  0  0  0  0
 27 28  1  0  0  0  0
 27 54  1  0  0  0  0
 28 33  2  0  0  0  0
 28 29  1  0  0  0  0
 29 30  2  0  0  0  0
 29 55  1  0  0  0  0
 30 31  1  0  0  0  0
 30 56  1  0  0  0  0
 31 36  1  0  0  0  0
 31 32  2  0  0  0  0
 32 33  1  0  0  0  0
 32 34  1  0  0  0  0
 33 57  1  0  0  0  0
 34 35  1  0  0  0  0
 34 58  1  0  0  0  0
 34 59  1  0  0  0  0
 35 36  1  0  0  0  0
 35 60  1  0  0  0  0
 35 61  1  0  0  0  0
M  CHG  1   3   1
M  END
$$$$
CHEMBL351744
  -OEChem-07121202283D

 61 67  0     1  0  0  0  0  0999 V2000
    0.6547    0.8918   -1.3504 C   0  0  0  0  0  0  0  0  0  0  0  0
    0.3892   -0.5766   -1.1404 C   0  0  0  0  0  0  0  0  0  0  0  0
    0.0573   -1.4283   -2.0727 N   0  0  0  0  0  0  0  0  0  0  0  0
   -0.1007   -2.6431   -1.5336 C   0  0  0  0  0  0  0  0  0  0  0  0
    0.1450   -2.5435   -0.1993 C   0  0  0  0  0  0  0  0  0  0  0  0
    0.4618   -1.2263    0.0425 N   0  0  0  0  0  0  0  0  0  0  0  0
    0.8088   -0.6382    1.3387 C   0  0  0  0  0  0  0  0  0  0  0  0
    0.0886   -3.6373    0.7953 C   0  0  0  0  0  0  0  0  0  0  0  0
   -0.0210   -3.3596    2.1619 C   0  0  0  0  0  0  0  0  0  0  0  0
   -0.0688   -4.3644    3.0184 N   0  0  0  0  0  0  0  0  0  0  0  0
   -0.0144   -5.6200    2.5978 C   0  0  0  0  0  0  0  0  0  0  0  0
    0.0899   -5.9239    1.3121 N   0  0  0  0  0  0  0  0  0  0  0  0
    0.1377   -4.9762    0.3929 C   0  0  0  0  0  0  0  0  0  0  0  0
   -0.0676   -6.6434    3.5283 N   0  0  0  0  0  0  0  0  0  0  0  0
   -0.1889   -6.3514    4.9646 C   0  0  0  0  0  0  0  0  0  0  0  0
    1.0762   -6.8398    5.6805 C   0  0  0  0  0  0  0  0  0  0  0  0
    1.4199   -8.2200    5.1814 C   0  0  0  0  0  0  0  0  0  0  0  0
    2.2883   -9.2053    5.7936 C   0  0  0  0  0  0  0  0  0  0  0  0
    3.0420   -9.2029    6.9713 C   0  0  0  0  0  0  0  0  0  0  0  0
    3.7657  -10.3367    7.2471 C   0  0  0  0  0  0  0  0  0  0  0  0
    3.7580  -11.4375    6.4061 C   0  0  0  0  0  0  0  0  0  0  0  0
    3.0220  -11.4667    5.2343 C   0  0  0  0  0  0  0  0  0  0  0  0
    2.2771  -10.3295    4.9286 C   0  0  0  0  0  0  0  0  0  0  0  0
    1.4586  -10.0262    3.8789 N   0  0  0  0  0  0  0  0  0  0  0  0
    1.2668  -10.6152    3.1324 H   0  0  0  0  0  0  0  0  0  0  0  0
    0.9493   -8.7651    4.0388 C   0  0  0  0  0  0  0  0  0  0  0  0
   -0.0102   -8.0531    3.1050 C   0  0  1  0  0  0  0  0  0  0  0  0
   -1.3805   -8.6728    3.2021 C   0  0  0  0  0  0  0  0  0  0  0  0
   -1.9986   -8.8003    4.4325 C   0  0  0  0  0  0  0  0  0  0  0  0
   -3.2545   -9.3629    4.5265 C   0  0  0  0  0  0  0  0  0  0  0  0
   -3.9112   -9.8080    3.3817 C   0  0  0  0  0  0  0  0  0  0  0  0
   -3.2771   -9.6813    2.1526 C   0  0  0  0  0  0  0  0  0  0  0  0
   -2.0267   -9.1109    2.0600 C   0  0  0  0  0  0  0  0  0  0  0  0
   -4.2095  -10.2654    1.1091 C   0  0  0  0  0  0  0  0  0  0  0  0
   -5.2106  -11.0582    1.9825 C   0  0  0  0  0  0  0  0  0  0  0  0
   -5.1415  -10.3747    3.2455 O   0  0  0  0  0  0  0  0  0  0  0  0
    1.7109    1.0418   -1.5741 H   0  0  0  0  0  0  0  0  0  0  0  0
    0.0520    1.2546   -2.1831 H   0  0  0  0  0  0  0  0  0  0  0  0
    0.3932    1.4413   -0.4461 H   0  0  0  0  0  0  0  0  0  0  0  0
   -0.3749   -3.5431   -2.0640 H   0  0  0  0  0  0  0  0  0  0  0  0
   -0.1035   -0.3805    1.8767 H   0  0  0  0  0  0  0  0  0  0  0  0
    1.3836   -1.3576    1.9219 H   0  0  0  0  0  0  0  0  0  0  0  0
    1.4044    0.2611    1.1819 H   0  0  0  0  0  0  0  0  0  0  0  0
   -0.0655   -2.3388    2.5118 H   0  0  0  0  0  0  0  0  0  0  0  0
    0.2177   -5.2313   -0.6535 H   0  0  0  0  0  0  0  0  0  0  0  0
   -0.2989   -5.2768    5.1105 H   0  0  0  0  0  0  0  0  0  0  0  0
   -1.0595   -6.8673    5.3696 H   0  0  0  0  0  0  0  0  0  0  0  0
    1.9010   -6.1594    5.4686 H   0  0  0  0  0  0  0  0  0  0  0  0
    0.8969   -6.8746    6.7550 H   0  0  0  0  0  0  0  0  0  0  0  0
    3.0545   -8.3493    7.6328 H   0  0  0  0  0  0  0  0  0  0  0  0
    4.3603  -10.3712    8.1480 H   0  0  0  0  0  0  0  0  0  0  0  0
    4.3467  -12.3025    6.6739 H   0  0  0  0  0  0  0  0  0  0  0  0
    3.0244  -12.3313    4.5871 H   0  0  0  0  0  0  0  0  0  0  0  0
    0.3541   -8.1171    2.0796 H   0  0  0  0  0  0  0  0  0  0  0  0
   -1.4953   -8.4579    5.3246 H   0  0  0  0  0  0  0  0  0  0  0  0
   -3.7305   -9.4582    5.4912 H   0  0  0  0  0  0  0  0  0  0  0  0
   -1.5495   -9.0091    1.0965 H   0  0  0  0  0  0  0  0  0  0  0  0
   -4.7167   -9.4760    0.5544 H   0  0  0  0  0  0  0  0  0  0  0  0
   -3.6708  -10.9299    0.4336 H   0  0  0  0  0  0  0  0  0  0  0  0
   -6.2164  -11.0000    1.5664 H   0  0  0  0  0  0  0  0  0  0  0  0
   -4.8943  -12.0960    2.0871 H   0  0  0  0  0  0  0  0  0  0  0  0
  1  2  1  0  0  0  0
  1 37  1  0  0  0  0
  1 38  1  0  0  0  0
  1 39  1  0  0  0  0
  2  6  1  0  0  0  0
  2  3  2  0  0  0  0
  3  4  1  0  0  0  0
  4  5  2  0  0  0  0
  4 40  1  0  0  0  0
  5  6  1  0  0  0  0
  5  8  1  0  0  0  0
  6  7  1  0  0  0  0
  7 41  1  0  0  0  0
  7 42  1  0  0  0  0
  7 43  1  0  0  0  0
  8 13  2  0  0  0  0
  8  9  1  0  0  0  0
  9 10  2  0  0  0  0
  9 44  1  0  0  0  0
 10 11  1  0  0  0  0
 11 12  2  0  0  0  0
 11 14  1  0  0  0  0
 12 13  1  0  0  0  0
 13 45  1  0  0  0  0
 14 27  1  0  0  0  0
 14 15  1  0  0  0  0
 15 16  1  0  0  0  0
 15 46  1  0  0  0  0
 15 47  1  0  0  0  0
 16 17  1  0  0  0  0
 16 48  1  0  0  0  0
 16 49  1  0  0  0  0
 17 26  2  0  0  0  0
 17 18  1  0  0  0  0
 18 23  2  0  0  0  0
 18 19  1  0  0  0  0
 19 20  2  0  0  0  0
 19 50  1  0  0  0  0
 20 21  1  0  0  0  0
 20 51  1  0  0  0  0
 21 22  2  0  0  0  0
 21 52  1  0  0  0  0
 22 23  1  0  0  0  0
 22 53  1  0  0  0  0
 23 24  1  0  0  0  0
 24 25  1  0  0  0  0
 24 26  1  0  0  0  0
 26 27  1  0  0  0  0
 27 28  1  0  0  0  0
 27 54  1  0  0  0  0
 28 33  2  0  0  0  0
 28 29  1  0  0  0  0
 29 30  2  0  0  0  0
 29 55  1  0  0  0  0
 30 31  1  0  0  0  0
 30 56  1  0  0  0  0
 31 36  1  0  0  0  0
 31 32  2  0  0  0  0
 32 33  1  0  0  0  0
 32 34  1  0  0  0  0
 33 57  1  0  0  0  0
 34 35  1  0  0  0  0
 34 58  1  0  0  0  0
 34 59  1  0  0  0  0
 35 36  1  0  0  0  0
 35 60  1  0  0  0  0
 35 61  1  0  0  0  0
M  END
$$$$
CHEMBL163905
  -OEChem-07121202283D

 58 64  0     1  0  0  0  0  0999 V2000
   -0.0449    1.3392    0.0198 C   0  0  0  0  0  0  0  0  0  0  0  0
    1.1367    2.0680    0.0155 C   0  0  0  0  0  0  0  0  0  0  0  0
    2.3561    1.4276   -0.0003 C   0  0  0  0  0  0  0  0  0  0  0  0
    2.4074    0.0377   -0.0123 C   0  0  0  0  0  0  0  0  0  0  0  0
    1.2065   -0.6976   -0.0081 C   0  0  0  0  0  0  0  0  0  0  0  0
   -0.0183   -0.0265    0.0084 C   0  0  0  0  0  0  0  0  0  0  0  0
    1.5988   -2.1041   -0.0245 C   0  0  0  0  0  0  0  0  0  0  0  0
    2.9450   -2.1426   -0.0351 C   0  0  0  0  0  0  0  0  0  0  0  0
    3.4430   -0.8713   -0.0296 N   0  0  0  0  0  0  0  0  0  0  0  0
    4.3855   -0.6421   -0.0371 H   0  0  0  0  0  0  0  0  0  0  0  0
    3.7417   -3.4290   -0.0456 C   0  0  2  0  0  0  0  0  0  0  0  0
    2.8007   -4.5279   -0.3226 N   0  0  0  0  0  0  0  0  0  0  0  0
    1.5133   -4.5413    0.3883 C   0  0  0  0  0  0  0  0  0  0  0  0
    0.6984   -3.3121   -0.0335 C   0  0  0  0  0  0  0  0  0  0  0  0
    3.1209   -5.5261   -1.2328 C   0  0  0  0  0  0  0  0  0  0  0  0
    4.3886   -5.5498   -1.8092 C   0  0  0  0  0  0  0  0  0  0  0  0
    4.6993   -6.5454   -2.7132 C   0  0  0  0  0  0  0  0  0  0  0  0
    3.7197   -7.4989   -3.0166 C   0  0  0  0  0  0  0  0  0  0  0  0
    2.4748   -7.4099   -2.4000 C   0  0  0  0  0  0  0  0  0  0  0  0
    2.2187   -6.4468   -1.5378 N   0  0  0  0  0  0  0  0  0  0  0  0
    4.0043   -8.5878   -3.9817 C   0  0  0  0  0  0  0  0  0  0  0  0
    3.0162   -9.5256   -4.2770 C   0  0  0  0  0  0  0  0  0  0  0  0
    3.2965  -10.5357   -5.1800 C   0  0  0  0  0  0  0  0  0  0  0  0
    4.5574  -10.5758   -5.7593 C   0  0  0  0  0  0  0  0  0  0  0  0
    5.4900   -9.6134   -5.4208 C   0  0  0  0  0  0  0  0  0  0  0  0
    5.1957   -8.6586   -4.5614 N   0  0  0  0  0  0  0  0  0  0  0  0
    4.3934   -3.6390    1.2970 C   0  0  0  0  0  0  0  0  0  0  0  0
    5.7601   -3.8316    1.3823 C   0  0  0  0  0  0  0  0  0  0  0  0
    6.3621   -4.0200    2.6090 C   0  0  0  0  0  0  0  0  0  0  0  0
    5.5976   -4.0180    3.7733 C   0  0  0  0  0  0  0  0  0  0  0  0
    4.2250   -3.8309    3.6741 C   0  0  0  0  0  0  0  0  0  0  0  0
    3.6271   -3.6339    2.4489 C   0  0  0  0  0  0  0  0  0  0  0  0
    3.6640   -3.9010    5.0812 C   0  0  0  0  0  0  0  0  0  0  0  0
    4.8388   -4.5355    5.8627 C   0  0  0  0  0  0  0  0  0  0  0  0
    5.9817   -4.1708    5.0703 O   0  0  0  0  0  0  0  0  0  0  0  0
   -0.9929    1.8562    0.0368 H   0  0  0  0  0  0  0  0  0  0  0  0
    1.0995    3.1473    0.0244 H   0  0  0  0  0  0  0  0  0  0  0  0
    3.2699    2.0032   -0.0036 H   0  0  0  0  0  0  0  0  0  0  0  0
   -0.9420   -0.5860    0.0124 H   0  0  0  0  0  0  0  0  0  0  0  0
    4.5025   -3.3873   -0.8251 H   0  0  0  0  0  0  0  0  0  0  0  0
    0.9648   -5.4479    0.1327 H   0  0  0  0  0  0  0  0  0  0  0  0
    1.6899   -4.5107    1.4634 H   0  0  0  0  0  0  0  0  0  0  0  0
   -0.1228   -3.1606    0.6670 H   0  0  0  0  0  0  0  0  0  0  0  0
    0.3013   -3.4640   -1.0372 H   0  0  0  0  0  0  0  0  0  0  0  0
    5.1198   -4.7977   -1.5520 H   0  0  0  0  0  0  0  0  0  0  0  0
    5.6744   -6.5878   -3.1756 H   0  0  0  0  0  0  0  0  0  0  0  0
    1.7123   -8.1402   -2.6276 H   0  0  0  0  0  0  0  0  0  0  0  0
    2.0456   -9.4647   -3.8074 H   0  0  0  0  0  0  0  0  0  0  0  0
    2.5511  -11.2767   -5.4283 H   0  0  0  0  0  0  0  0  0  0  0  0
    4.8075  -11.3518   -6.4676 H   0  0  0  0  0  0  0  0  0  0  0  0
    6.4718   -9.6419   -5.8698 H   0  0  0  0  0  0  0  0  0  0  0  0
    6.3592   -3.8350    0.4838 H   0  0  0  0  0  0  0  0  0  0  0  0
    7.4301   -4.1692    2.6669 H   0  0  0  0  0  0  0  0  0  0  0  0
    2.5600   -3.4792    2.3872 H   0  0  0  0  0  0  0  0  0  0  0  0
    3.4372   -2.9046    5.4602 H   0  0  0  0  0  0  0  0  0  0  0  0
    2.7818   -4.5402    5.1174 H   0  0  0  0  0  0  0  0  0  0  0  0
    4.9112   -4.1102    6.8636 H   0  0  0  0  0  0  0  0  0  0  0  0
    4.7311   -5.6192    5.9093 H   0  0  0  0  0  0  0  0  0  0  0  0
  1  6  2  0  0  0  0
  1  2  1  0  0  0  0
  1 36  1  0  0  0  0
  2  3  2  0  0  0  0
  2 37  1  0  0  0  0
  3  4  1  0  0  0  0
  3 38  1  0  0  0  0
  4  9  1  0  0  0  0
  4  5  2  0  0  0  0
  5  6  1  0  0  0  0
  5  7  1  0  0  0  0
  6 39  1  0  0  0  0
  7 14  1  0  0  0  0
  7  8  2  0  0  0  0
  8  9  1  0  0  0  0
  8 11  1  0  0  0  0
  9 10  1  0  0  0  0
 11 12  1  0  0  0  0
 11 27  1  0  0  0  0
 11 40  1  0  0  0  0
 12 13  1  0  0  0  0
 12 15  1  0  0  0  0
 13 14  1  0  0  0  0
 13 41  1  0  0  0  0
 13 42  1  0  0  0  0
 14 43  1  0  0  0  0
 14 44  1  0  0  0  0
 15 20  2  0  0  0  0
 15 16  1  0  0  0  0
 16 17  2  0  0  0  0
 16 45  1  0  0  0  0
 17 18  1  0  0  0  0
 17 46  1  0  0  0  0
 18 19  2  0  0  0  0
 18 21  1  0  0  0  0
 19 20  1  0  0  0  0
 19 47  1  0  0  0  0
 21 26  2  0  0  0  0
 21 22  1  0  0  0  0
 22 23  2  0  0  0  0
 22 48  1  0  0  0  0
 23 24  1  0  0  0  0
 23 49  1  0  0  0  0
 24 25  2  0  0  0  0
 24 50  1  0  0  0  0
 25 26  1  0  0  0  0
 25 51  1  0  0  0  0
 27 32  2  0  0  0  0
 27 28  1  0  0  0  0
 28 29  2  0  0  0  0
 28 52  1  0  0  0  0
 29 30  1  0  0  0  0
 29 53  1  0  0  0  0
 30 35  1  0  0  0  0
 30 31  2  0  0  0  0
 31 32  1  0  0  0  0
 31 33  1  0  0  0  0
 32 54  1  0  0  0  0
 33 34  1  0  0  0  0
 33 55  1  0  0  0  0
 33 56  1  0  0  0  0
 34 35  1  0  0  0  0
 34 57  1  0  0  0  0
 34 58  1  0  0  0  0
M  END
$$$$
CHEMBL163905
  -OEChem-07121202283D

 58 64  0     1  0  0  0  0  0999 V2000
   -1.7661   -0.2559   -0.5429 C   0  0  0  0  0  0  0  0  0  0  0  0
   -0.9753    0.8590   -0.3002 C   0  0  0  0  0  0  0  0  0  0  0  0
    0.3716    0.7222   -0.0464 C   0  0  0  0  0  0  0  0  0  0  0  0
    0.9477   -0.5437   -0.0317 C   0  0  0  0  0  0  0  0  0  0  0  0
    0.1418   -1.6719   -0.2778 C   0  0  0  0  0  0  0  0  0  0  0  0
   -1.2215   -1.5086   -0.5336 C   0  0  0  0  0  0  0  0  0  0  0  0
    1.0324   -2.8259   -0.1922 C   0  0  0  0  0  0  0  0  0  0  0  0
    2.2650   -2.3587    0.0844 C   0  0  0  0  0  0  0  0  0  0  0  0
    2.2307   -0.9975    0.1850 N   0  0  0  0  0  0  0  0  0  0  0  0
    2.9956   -0.4337    0.3796 H   0  0  0  0  0  0  0  0  0  0  0  0
    3.4773   -3.2500    0.2451 C   0  0  1  0  0  0  0  0  0  0  0  0
    2.9950   -4.6397    0.3241 N   0  0  0  0  0  0  0  0  0  0  0  0
    1.9622   -5.0761   -0.6276 C   0  0  0  0  0  0  0  0  0  0  0  0
    0.6773   -4.2794   -0.3684 C   0  0  0  0  0  0  0  0  0  0  0  0
    3.5027   -5.5157    1.2740 C   0  0  0  0  0  0  0  0  0  0  0  0
    4.6205   -5.1489    2.0195 C   0  0  0  0  0  0  0  0  0  0  0  0
    5.1192   -6.0253    2.9619 C   0  0  0  0  0  0  0  0  0  0  0  0
    4.4761   -7.2575    3.1316 C   0  0  0  0  0  0  0  0  0  0  0  0
    3.3635   -7.5537    2.3491 C   0  0  0  0  0  0  0  0  0  0  0  0
    2.9145   -6.6874    1.4633 N   0  0  0  0  0  0  0  0  0  0  0  0
    4.9736   -8.2336    4.1307 C   0  0  0  0  0  0  0  0  0  0  0  0
    4.3253   -9.4581    4.2831 C   0  0  0  0  0  0  0  0  0  0  0  0
    4.8015  -10.3589    5.2192 C   0  0  0  0  0  0  0  0  0  0  0  0
    5.9120  -10.0057    5.9736 C   0  0  0  0  0  0  0  0  0  0  0  0
    6.5061   -8.7744    5.7704 C   0  0  0  0  0  0  0  0  0  0  0  0
    6.0356   -7.9366    4.8685 N   0  0  0  0  0  0  0  0  0  0  0  0
    4.3906   -3.0916   -0.9431 C   0  0  0  0  0  0  0  0  0  0  0  0
    5.7206   -2.7621   -0.7568 C   0  0  0  0  0  0  0  0  0  0  0  0
    6.5619   -2.6200   -1.8406 C   0  0  0  0  0  0  0  0  0  0  0  0
    6.0782   -2.8073   -3.1333 C   0  0  0  0  0  0  0  0  0  0  0  0
    4.7389   -3.1307   -3.3081 C   0  0  0  0  0  0  0  0  0  0  0  0
    3.9027   -3.2810   -2.2238 C   0  0  0  0  0  0  0  0  0  0  0  0
    4.5008   -3.2462   -4.8012 C   0  0  0  0  0  0  0  0  0  0  0  0
    5.7615   -2.5615   -5.3802 C   0  0  0  0  0  0  0  0  0  0  0  0
    6.7266   -2.7300   -4.3279 O   0  0  0  0  0  0  0  0  0  0  0  0
   -2.8215   -0.1321   -0.7362 H   0  0  0  0  0  0  0  0  0  0  0  0
   -1.4203    1.8430   -0.3109 H   0  0  0  0  0  0  0  0  0  0  0  0
    0.9788    1.5956    0.1404 H   0  0  0  0  0  0  0  0  0  0  0  0
   -1.8437   -2.3708   -0.7233 H   0  0  0  0  0  0  0  0  0  0  0  0
    4.0097   -2.9900    1.1599 H   0  0  0  0  0  0  0  0  0  0  0  0
    2.3048   -4.8948   -1.6463 H   0  0  0  0  0  0  0  0  0  0  0  0
    1.7660   -6.1396   -0.4908 H   0  0  0  0  0  0  0  0  0  0  0  0
    0.1943   -4.6496    0.5359 H   0  0  0  0  0  0  0  0  0  0  0  0
    0.0019   -4.3900   -1.2167 H   0  0  0  0  0  0  0  0  0  0  0  0
    5.0917   -4.1900    1.8618 H   0  0  0  0  0  0  0  0  0  0  0  0
    5.9848   -5.7671    3.5539 H   0  0  0  0  0  0  0  0  0  0  0  0
    2.8606   -8.5015    2.4721 H   0  0  0  0  0  0  0  0  0  0  0  0
    3.4632   -9.7002    3.6793 H   0  0  0  0  0  0  0  0  0  0  0  0
    4.3198  -11.3152    5.3600 H   0  0  0  0  0  0  0  0  0  0  0  0
    6.3078  -10.6866    6.7127 H   0  0  0  0  0  0  0  0  0  0  0  0
    7.3702   -8.4968    6.3559 H   0  0  0  0  0  0  0  0  0  0  0  0
    6.1026   -2.6148    0.2426 H   0  0  0  0  0  0  0  0  0  0  0  0
    7.5994   -2.3630   -1.6864 H   0  0  0  0  0  0  0  0  0  0  0  0
    2.8657   -3.5429   -2.3736 H   0  0  0  0  0  0  0  0  0  0  0  0
    4.4494   -4.2910   -5.1078 H   0  0  0  0  0  0  0  0  0  0  0  0
    3.5976   -2.7110   -5.0942 H   0  0  0  0  0  0  0  0  0  0  0  0
    6.0904   -3.0639   -6.2899 H   0  0  0  0  0  0  0  0  0  0  0  0
    5.5750   -1.5041   -5.5676 H   0  0  0  0  0  0  0  0  0  0  0  0
  1  6  2  0  0  0  0
  1  2  1  0  0  0  0
  1 36  1  0  0  0  0
  2  3  2  0  0  0  0
  2 37  1  0  0  0  0
  3  4  1  0  0  0  0
  3 38  1  0  0  0  0
  4  9  1  0  0  0  0
  4  5  2  0  0  0  0
  5  6  1  0  0  0  0
  5  7  1  0  0  0  0
  6 39  1  0  0  0  0
  7 14  1  0  0  0  0
  7  8  2  0  0  0  0
  8  9  1  0  0  0  0
  8 11  1  0  0  0  0
  9 10  1  0  0  0  0
 11 12  1  0  0  0  0
 11 27  1  0  0  0  0
 11 40  1  0  0  0  0
 12 13  1  0  0  0  0
 12 15  1  0  0  0  0
 13 14  1  0  0  0  0
 13 41  1  0  0  0  0
 13 42  1  0  0  0  0
 14 43  1  0  0  0  0
 14 44  1  0  0  0  0
 15 20  2  0  0  0  0
 15 16  1  0  0  0  0
 16 17  2  0  0  0  0
 16 45  1  0  0  0  0
 17 18  1  0  0  0  0
 17 46  1  0  0  0  0
 18 19  2  0  0  0  0
 18 21  1  0  0  0  0
 19 20  1  0  0  0  0
 19 47  1  0  0  0  0
 21 26  2  0  0  0  0
 21 22  1  0  0  0  0
 22 23  2  0  0  0  0
 22 48  1  0  0  0  0
 23 24  1  0  0  0  0
 23 49  1  0  0  0  0
 24 25  2  0  0  0  0
 24 50  1  0  0  0  0
 25 26  1  0  0  0  0
 25 51  1  0  0  0  0
 27 32  2  0  0  0  0
 27 28  1  0  0  0  0
 28 29  2  0  0  0  0
 28 52  1  0  0  0  0
 29 30  1  0  0  0  0
 29 53  1  0  0  0  0
 30 35  1  0  0  0  0
 30 31  2  0  0  0  0
 31 32  1  0  0  0  0
 31 33  1  0  0  0  0
 32 54  1  0  0  0  0
 33 34  1  0  0  0  0
 33 55  1  0  0  0  0
 33 56  1  0  0  0  0
 34 35  1  0  0  0  0
 34 57  1  0  0  0  0
 34 58  1  0  0  0  0
M  END
$$$$
CHEMBL313482
  -OEChem-07121202283D

 74 78  0     0  0  0  0  0  0999 V2000
   -0.0187    1.5258    0.0104 C   0  0  0  0  0  0  0  0  0  0  0  0
    0.0021   -0.0041    0.0020 C   0  0  0  0  0  0  0  0  0  0  0  0
   -1.3386   -0.4987    0.0122 O   0  0  0  0  0  0  0  0  0  0  0  0
   -1.4981   -1.8467    0.0064 C   0  0  0  0  0  0  0  0  0  0  0  0
   -0.3895   -2.6788   -0.0028 C   0  0  0  0  0  0  0  0  0  0  0  0
   -0.5532   -4.0504   -0.0086 C   0  0  0  0  0  0  0  0  0  0  0  0
   -1.8226   -4.6041   -0.0048 C   0  0  0  0  0  0  0  0  0  0  0  0
   -2.9358   -3.7909    0.0044 C   0  0  0  0  0  0  0  0  0  0  0  0
   -2.7839   -2.4029    0.0157 C   0  0  0  0  0  0  0  0  0  0  0  0
   -3.9717   -1.5263    0.0318 C   0  0  0  0  0  0  0  0  0  0  0  0
   -3.9471   -0.2075    0.0328 N   0  0  0  0  0  0  0  0  0  0  0  0
   -5.5716   -2.8726    0.0401 H   0  0  0  0  0  0  0  0  0  0  0  0
   -5.1914    0.2686    0.0486 C   0  0  0  0  0  0  0  0  0  0  0  0
   -6.0583   -0.8196    0.0582 C   0  0  0  0  0  0  0  0  0  0  0  0
   -5.2655   -1.9521    0.0418 N   0  0  0  0  0  0  0  0  0  0  0  0
   -7.4495   -0.5898    0.0752 C   0  0  0  0  0  0  0  0  0  0  0  0
   -8.2284   -1.5265    0.0842 O   0  0  0  0  0  0  0  0  0  0  0  0
   -7.9083    0.6789    0.0817 N   0  0  0  0  0  0  0  0  0  0  0  0
   -7.0606    1.7219    0.0724 C   0  0  0  0  0  0  0  0  0  0  0  0
   -7.5109    2.8514    0.0791 O   0  0  0  0  0  0  0  0  0  0  0  0
   -5.7258    1.5479    0.0562 N   0  0  0  0  0  0  0  0  0  0  0  0
   -4.8365    2.7121    0.0469 C   0  0  0  0  0  0  0  0  0  0  0  0
   -4.5438    3.1188   -1.3988 C   0  0  0  0  0  0  0  0  0  0  0  0
   -3.7587    2.0042   -2.0931 C   0  0  0  0  0  0  0  0  0  0  0  0
   -3.4660    2.4109   -3.5388 C   0  0  0  0  0  0  0  0  0  0  0  0
   -2.6403    3.6989   -3.5490 C   0  0  0  0  0  0  0  0  0  0  0  0
   -3.4255    4.8135   -2.8546 C   0  0  0  0  0  0  0  0  0  0  0  0
   -3.7181    4.4068   -1.4090 C   0  0  0  0  0  0  0  0  0  0  0  0
   -9.3526    0.9234    0.0989 C   0  0  0  0  0  0  0  0  0  0  0  0
   -2.0157   -6.3555   -0.0122 S   0  0  0  0  0  0  0  0  0  0  0  0
   -3.3009   -6.6201   -0.5578 O   0  0  0  0  0  0  0  0  0  0  0  0
   -0.8252   -6.8930   -0.5718 O   0  0  0  0  0  0  0  0  0  0  0  0
   -2.0613   -6.8498    1.5676 N   0  0  0  0  0  0  0  0  0  0  0  0
   -0.8267   -7.2077    2.2825 C   0  0  0  0  0  0  0  0  0  0  0  0
   -0.7897   -6.4364    3.6062 C   0  0  0  0  0  0  0  0  0  0  0  0
   -2.0322   -6.6855    4.3492 N   0  0  0  0  0  0  0  0  0  0  0  0
   -3.2015   -6.1819    3.6163 C   0  0  0  0  0  0  0  0  0  0  0  0
   -3.3367   -6.9369    2.2949 C   0  0  0  0  0  0  0  0  0  0  0  0
   -1.9653   -6.1044    5.6967 C   0  0  0  0  0  0  0  0  0  0  0  0
    1.0039    1.9031    0.0027 H   0  0  0  0  0  0  0  0  0  0  0  0
   -0.5459    1.8868   -0.8726 H   0  0  0  0  0  0  0  0  0  0  0  0
   -0.5289    1.8773    0.9072 H   0  0  0  0  0  0  0  0  0  0  0  0
    0.5123   -0.3556   -0.8948 H   0  0  0  0  0  0  0  0  0  0  0  0
    0.5293   -0.3651    0.8851 H   0  0  0  0  0  0  0  0  0  0  0  0
    0.6035   -2.2542   -0.0059 H   0  0  0  0  0  0  0  0  0  0  0  0
    0.3136   -4.6946   -0.0165 H   0  0  0  0  0  0  0  0  0  0  0  0
   -3.9239   -4.2268    0.0067 H   0  0  0  0  0  0  0  0  0  0  0  0
   -5.3171    3.5406    0.5672 H   0  0  0  0  0  0  0  0  0  0  0  0
   -3.9027    2.4601    0.5496 H   0  0  0  0  0  0  0  0  0  0  0  0
   -5.4828    3.2850   -1.9267 H   0  0  0  0  0  0  0  0  0  0  0  0
   -2.8197    1.8380   -1.5652 H   0  0  0  0  0  0  0  0  0  0  0  0
   -4.3469    1.0866   -2.0858 H   0  0  0  0  0  0  0  0  0  0  0  0
   -2.9067    1.6168   -4.0334 H   0  0  0  0  0  0  0  0  0  0  0  0
   -4.4051    2.5770   -4.0667 H   0  0  0  0  0  0  0  0  0  0  0  0
   -1.7013    3.5327   -3.0211 H   0  0  0  0  0  0  0  0  0  0  0  0
   -2.4318    3.9886   -4.5789 H   0  0  0  0  0  0  0  0  0  0  0  0
   -2.8372    5.7311   -2.8619 H   0  0  0  0  0  0  0  0  0  0  0  0
   -4.3645    4.9797   -3.3825 H   0  0  0  0  0  0  0  0  0  0  0  0
   -4.2775    5.2009   -0.9143 H   0  0  0  0  0  0  0  0  0  0  0  0
   -2.7791    4.2407   -0.8811 H   0  0  0  0  0  0  0  0  0  0  0  0
   -9.8824   -0.0291    0.1042 H   0  0  0  0  0  0  0  0  0  0  0  0
   -9.6146    1.4899    0.9925 H   0  0  0  0  0  0  0  0  0  0  0  0
   -9.6354    1.4916   -0.7873 H   0  0  0  0  0  0  0  0  0  0  0  0
   -0.8170   -8.2791    2.4826 H   0  0  0  0  0  0  0  0  0  0  0  0
    0.0384   -6.9375    1.6770 H   0  0  0  0  0  0  0  0  0  0  0  0
    0.0617   -6.7713    4.1986 H   0  0  0  0  0  0  0  0  0  0  0  0
   -0.6950   -5.3697    3.4031 H   0  0  0  0  0  0  0  0  0  0  0  0
   -4.0991   -6.3322    4.2161 H   0  0  0  0  0  0  0  0  0  0  0  0
   -3.0732   -5.1187    3.4131 H   0  0  0  0  0  0  0  0  0  0  0  0
   -4.1302   -6.4877    1.6976 H   0  0  0  0  0  0  0  0  0  0  0  0
   -3.5728   -7.9817    2.4963 H   0  0  0  0  0  0  0  0  0  0  0  0
   -1.8132   -5.0278    5.6210 H   0  0  0  0  0  0  0  0  0  0  0  0
   -2.8977   -6.3034    6.2250 H   0  0  0  0  0  0  0  0  0  0  0  0
   -1.1352   -6.5510    6.2441 H   0  0  0  0  0  0  0  0  0  0  0  0
  1  2  1  0  0  0  0
  1 40  1  0  0  0  0
  1 41  1  0  0  0  0
  1 42  1  0  0  0  0
  2  3  1  0  0  0  0
  2 43  1  0  0  0  0
  2 44  1  0  0  0  0
  3  4  1  0  0  0  0
  4  9  2  0  0  0  0
  4  5  1  0  0  0  0
  5  6  2  0  0  0  0
  5 45  1  0  0  0  0
  6  7  1  0  0  0  0
  6 46  1  0  0  0  0
  7  8  2  0  0  0  0
  7 30  1  0  0  0  0
  8  9  1  0  0  0  0
  8 47  1  0  0  0  0
  9 10  1  0  0  0  0
 10 15  1  0  0  0  0
 10 11  2  0  0  0  0
 11 13  1  0  0  0  0
 12 15  1  0  0  0  0
 13 21  1  0  0  0  0
 13 14  2  0  0  0  0
 14 16  1  0  0  0  0
 14 15  1  0  0  0  0
 16 18  1  0  0  0  0
 16 17  2  0  0  0  0
 18 19  1  0  0  0  0
 18 29  1  0  0  0  0
 19 21  1  0  0  0  0
 19 20  2  0  0  0  0
 21 22  1  0  0  0  0
 22 23  1  0  0  0  0
 22 48  1  0  0  0  0
 22 49  1  0  0  0  0
 23 28  1  0  0  0  0
 23 24  1  0  0  0  0
 23 50  1  0  0  0  0
 24 25  1  0  0  0  0
 24 51  1  0  0  0  0
 24 52  1  0  0  0  0
 25 26  1  0  0  0  0
 25 53  1  0  0  0  0
 25 54  1  0  0  0  0
 26 27  1  0  0  0  0
 26 55  1  0  0  0  0
 26 56  1  0  0  0  0
 27 28  1  0  0  0  0
 27 57  1  0  0  0  0
 27 58  1  0  0  0  0
 28 59  1  0  0  0  0
 28 60  1  0  0  0  0
 29 61  1  0  0  0  0
 29 62  1  0  0  0  0
 29 63  1  0  0  0  0
 30 31  2  0  0  0  0
 30 32  2  0  0  0  0
 30 33  1  0  0  0  0
 33 38  1  0  0  0  0
 33 34  1  0  0  0  0
 34 35  1  0  0  0  0
 34 64  1  0  0  0  0
 34 65  1  0  0  0  0
 35 36  1  0  0  0  0
 35 66  1  0  0  0  0
 35 67  1  0  0  0  0
 36 37  1  0  0  0  0
 36 39  1  0  0  0  0
 37 38  1  0  0  0  0
 37 68  1  0  0  0  0
 37 69  1  0  0  0  0
 38 70  1  0  0  0  0
 38 71  1  0  0  0  0
 39 72  1  0  0  0  0
 39 73  1  0  0  0  0
 39 74  1  0  0  0  0
M  END
$$$$
CHEMBL313482
  -OEChem-07121202283D

 75 79  0     0  0  0  0  0  0999 V2000
   -0.0187    1.5258    0.0104 C   0  0  0  0  0  0  0  0  0  0  0  0
    0.0021   -0.0041    0.0020 C   0  0  0  0  0  0  0  0  0  0  0  0
    0.6932   -0.4774    1.1597 O   0  0  0  0  0  0  0  0  0  0  0  0
    0.8019   -1.8227    1.3055 C   0  0  0  0  0  0  0  0  0  0  0  0
    0.2607   -2.6719    0.3529 C   0  0  0  0  0  0  0  0  0  0  0  0
    0.3720   -4.0407    0.5024 C   0  0  0  0  0  0  0  0  0  0  0  0
    1.0235   -4.5744    1.6017 C   0  0  0  0  0  0  0  0  0  0  0  0
    1.5673   -3.7439    2.5584 C   0  0  0  0  0  0  0  0  0  0  0  0
    1.4664   -2.3585    2.4163 C   0  0  0  0  0  0  0  0  0  0  0  0
    2.0518   -1.4633    3.4340 C   0  0  0  0  0  0  0  0  0  0  0  0
    2.0074   -0.1453    3.4075 N   0  0  0  0  0  0  0  0  0  0  0  0
    2.8923   -2.7841    4.8200 H   0  0  0  0  0  0  0  0  0  0  0  0
    2.6309    0.3504    4.4755 C   0  0  0  0  0  0  0  0  0  0  0  0
    3.0997   -0.7239    5.2253 C   0  0  0  0  0  0  0  0  0  0  0  0
    2.7178   -1.8687    4.5509 N   0  0  0  0  0  0  0  0  0  0  0  0
    3.8038   -0.4721    6.4209 C   0  0  0  0  0  0  0  0  0  0  0  0
    4.2244   -1.3961    7.0942 O   0  0  0  0  0  0  0  0  0  0  0  0
    4.0069    0.8035    6.8105 N   0  0  0  0  0  0  0  0  0  0  0  0
    3.5490    1.8327    6.0774 C   0  0  0  0  0  0  0  0  0  0  0  0
    3.7516    2.9691    6.4600 O   0  0  0  0  0  0  0  0  0  0  0  0
    2.8723    1.6377    4.9301 N   0  0  0  0  0  0  0  0  0  0  0  0
    2.3907    2.7875    4.1605 C   0  0  0  0  0  0  0  0  0  0  0  0
    0.9826    3.1606    4.6284 C   0  0  0  0  0  0  0  0  0  0  0  0
    0.0170    2.0202    4.2995 C   0  0  0  0  0  0  0  0  0  0  0  0
   -1.3911    2.3933    4.7673 C   0  0  0  0  0  0  0  0  0  0  0  0
   -1.8449    3.6679    4.0529 C   0  0  0  0  0  0  0  0  0  0  0  0
   -0.8794    4.8082    4.3818 C   0  0  0  0  0  0  0  0  0  0  0  0
    0.5287    4.4351    3.9139 C   0  0  0  0  0  0  0  0  0  0  0  0
    4.7374    1.0708    8.0519 C   0  0  0  0  0  0  0  0  0  0  0  0
    1.1575   -6.3223    1.7789 S   0  0  0  0  0  0  0  0  0  0  0  0
    1.3341   -6.5777    3.1655 O   0  0  0  0  0  0  0  0  0  0  0  0
    0.0916   -6.8894    1.0295 O   0  0  0  0  0  0  0  0  0  0  0  0
    2.5605   -6.7842    1.0302 N   0  0  0  0  0  0  0  0  0  0  0  0
    2.5731   -7.1471   -0.3954 C   0  0  0  0  0  0  0  0  0  0  0  0
    3.6942   -6.3637   -1.0862 C   0  0  0  0  0  0  0  0  0  0  0  0
    4.9626   -6.6072   -0.3876 N   0  3  0  0  0  0  0  0  0  0  0  0
    4.8915   -6.0736    0.9786 C   0  0  0  0  0  0  0  0  0  0  0  0
    3.8308   -6.8373    1.7703 C   0  0  0  0  0  0  0  0  0  0  0  0
    6.0545   -5.9452   -1.1138 C   0  0  0  0  0  0  0  0  0  0  0  0
    1.0039    1.9031    0.0027 H   0  0  0  0  0  0  0  0  0  0  0  0
   -0.5459    1.8868   -0.8726 H   0  0  0  0  0  0  0  0  0  0  0  0
   -0.5289    1.8773    0.9072 H   0  0  0  0  0  0  0  0  0  0  0  0
   -1.0205   -0.3814    0.0098 H   0  0  0  0  0  0  0  0  0  0  0  0
    0.5123   -0.3556   -0.8948 H   0  0  0  0  0  0  0  0  0  0  0  0
   -0.2488   -2.2630   -0.5070 H   0  0  0  0  0  0  0  0  0  0  0  0
   -0.0519   -4.6983   -0.2421 H   0  0  0  0  0  0  0  0  0  0  0  0
    2.0741   -4.1642    3.4145 H   0  0  0  0  0  0  0  0  0  0  0  0
    3.0606    3.6336    4.3137 H   0  0  0  0  0  0  0  0  0  0  0  0
    2.3656    2.5310    3.1014 H   0  0  0  0  0  0  0  0  0  0  0  0
    0.9906    3.3308    5.7050 H   0  0  0  0  0  0  0  0  0  0  0  0
    0.0090    1.8500    3.2229 H   0  0  0  0  0  0  0  0  0  0  0  0
    0.3403    1.1122    4.8085 H   0  0  0  0  0  0  0  0  0  0  0  0
   -2.0790    1.5809    4.5330 H   0  0  0  0  0  0  0  0  0  0  0  0
   -1.3831    2.5635    5.8439 H   0  0  0  0  0  0  0  0  0  0  0  0
   -1.8530    3.4977    2.9763 H   0  0  0  0  0  0  0  0  0  0  0  0
   -2.8481    3.9337    4.3862 H   0  0  0  0  0  0  0  0  0  0  0  0
   -1.2027    5.7163    3.8728 H   0  0  0  0  0  0  0  0  0  0  0  0
   -0.8714    4.9784    5.4584 H   0  0  0  0  0  0  0  0  0  0  0  0
    1.2166    5.2476    4.1482 H   0  0  0  0  0  0  0  0  0  0  0  0
    0.5207    4.2650    2.8373 H   0  0  0  0  0  0  0  0  0  0  0  0
    5.0306    0.1269    8.5114 H   0  0  0  0  0  0  0  0  0  0  0  0
    5.6279    1.6590    7.8301 H   0  0  0  0  0  0  0  0  0  0  0  0
    4.0972    1.6254    8.7379 H   0  0  0  0  0  0  0  0  0  0  0  0
    2.7559   -8.2167   -0.4994 H   0  0  0  0  0  0  0  0  0  0  0  0
    1.6149   -6.8906   -0.8471 H   0  0  0  0  0  0  0  0  0  0  0  0
    3.7813   -6.6909   -2.1222 H   0  0  0  0  0  0  0  0  0  0  0  0
    3.4632   -5.2988   -1.0595 H   0  0  0  0  0  0  0  0  0  0  0  0
    5.8608   -6.1871    1.4640 H   0  0  0  0  0  0  0  0  0  0  0  0
    4.6243   -5.0175    0.9428 H   0  0  0  0  0  0  0  0  0  0  0  0
    3.7036   -6.3760    2.7496 H   0  0  0  0  0  0  0  0  0  0  0  0
    4.1427   -7.8750    1.8886 H   0  0  0  0  0  0  0  0  0  0  0  0
    5.8635   -4.8729   -1.1584 H   0  0  0  0  0  0  0  0  0  0  0  0
    6.9967   -6.1252   -0.5961 H   0  0  0  0  0  0  0  0  0  0  0  0
    6.1134   -6.3461   -2.1256 H   0  0  0  0  0  0  0  0  0  0  0  0
    5.1397   -7.5998   -0.3508 H   0  0  0  0  0  0  0  0  0  0  0  0
  1  2  1  0  0  0  0
  1 40  1  0  0  0  0
  1 41  1  0  0  0  0
  1 42  1  0  0  0  0
  2  3  1  0  0  0  0
  2 43  1  0  0  0  0
  2 44  1  0  0  0  0
  3  4  1  0  0  0  0
  4  9  2  0  0  0  0
  4  5  1  0  0  0  0
  5  6  2  0  0  0  0
  5 45  1  0  0  0  0
  6  7  1  0  0  0  0
  6 46  1  0  0  0  0
  7  8  2  0  0  0  0
  7 30  1  0  0  0  0
  8  9  1  0  0  0  0
  8 47  1  0  0  0  0
  9 10  1  0  0  0  0
 10 15  1  0  0  0  0
 10 11  2  0  0  0  0
 11 13  1  0  0  0  0
 12 15  1  0  0  0  0
 13 21  1  0  0  0  0
 13 14  2  0  0  0  0
 14 16  1  0  0  0  0
 14 15  1  0  0  0  0
 16 18  1  0  0  0  0
 16 17  2  0  0  0  0
 18 19  1  0  0  0  0
 18 29  1  0  0  0  0
 19 21  1  0  0  0  0
 19 20  2  0  0  0  0
 21 22  1  0  0  0  0
 22 23  1  0  0  0  0
 22 48  1  0  0  0  0
 22 49  1  0  0  0  0
 23 28  1  0  0  0  0
 23 24  1  0  0  0  0
 23 50  1  0  0  0  0
 24 25  1  0  0  0  0
 24 51  1  0  0  0  0
 24 52  1  0  0  0  0
 25 26  1  0  0  0  0
 25 53  1  0  0  0  0
 25 54  1  0  0  0  0
 26 27  1  0  0  0  0
 26 55  1  0  0  0  0
 26 56  1  0  0  0  0
 27 28  1  0  0  0  0
 27 57  1  0  0  0  0
 27 58  1  0  0  0  0
 28 59  1  0  0  0  0
 28 60  1  0  0  0  0
 29 61  1  0  0  0  0
 29 62  1  0  0  0  0
 29 63  1  0  0  0  0
 30 31  2  0  0  0  0
 30 32  2  0  0  0  0
 30 33  1  0  0  0  0
 33 38  1  0  0  0  0
 33 34  1  0  0  0  0
 34 35  1  0  0  0  0
 34 64  1  0  0  0  0
 34 65  1  0  0  0  0
 35 36  1  0  0  0  0
 35 66  1  0  0  0  0
 35 67  1  0  0  0  0
 36 37  1  0  0  0  0
 36 39  1  0  0  0  0
 36 75  1  0  0  0  0
 37 38  1  0  0  0  0
 37 68  1  0  0  0  0
 37 69  1  0  0  0  0
 38 70  1  0  0  0  0
 38 71  1  0  0  0  0
 39 72  1  0  0  0  0
 39 73  1  0  0  0  0
 39 74  1  0  0  0  0
M  CHG  1  36   1
M  END
$$$$
CHEMBL550817
  -OEChem-07121202283D

 68 72  0     0  0  0  0  0  0999 V2000
    0.7817   -2.9255   -1.8247 C   0  0  0  0  0  0  0  0  0  0  0  0
   -0.1437   -2.0000   -1.0775 C   0  0  0  0  0  0  0  0  0  0  0  0
   -0.7101   -0.8029   -1.5814 C   0  0  0  0  0  0  0  0  0  0  0  0
   -1.4834   -0.2660   -0.5990 C   0  0  0  0  0  0  0  0  0  0  0  0
   -1.4126   -1.0749    0.4670 O   0  0  0  0  0  0  0  0  0  0  0  0
   -0.5675   -2.1626    0.1414 N   0  0  0  0  0  0  0  0  0  0  0  0
   -2.2776    1.0114   -0.6928 C   0  0  0  0  0  0  0  0  0  0  0  0
   -0.4980   -0.2374   -2.9340 C   0  0  0  0  0  0  0  0  0  0  0  0
   -0.6391   -1.0628   -4.0539 C   0  0  0  0  0  0  0  0  0  0  0  0
   -0.4445   -0.5436   -5.3034 C   0  0  0  0  0  0  0  0  0  0  0  0
   -0.1057    0.8162   -5.4199 C   0  0  0  0  0  0  0  0  0  0  0  0
    0.0206    1.5915   -4.2521 C   0  0  0  0  0  0  0  0  0  0  0  0
   -0.1830    1.0436   -3.0625 N   0  0  0  0  0  0  0  0  0  0  0  0
    0.3525    2.9280   -4.3469 N   0  0  0  0  0  0  0  0  0  0  0  0
    0.5516    3.4720   -5.5666 C   0  0  0  0  0  0  0  0  0  0  0  0
    0.8454    4.6482   -5.6758 O   0  0  0  0  0  0  0  0  0  0  0  0
    0.4092    2.6246   -6.7639 C   0  0  0  0  0  0  0  0  0  0  0  0
    0.0928    1.3603   -6.6360 N   0  0  0  0  0  0  0  0  0  0  0  0
    0.6091    3.1649   -8.0230 N   0  0  0  0  0  0  0  0  0  0  0  0
    0.4674    2.3219   -9.2127 C   0  0  0  0  0  0  0  0  0  0  0  0
    0.7390    3.1576  -10.4652 C   0  0  0  0  0  0  0  0  0  0  0  0
    0.5970    2.3123  -11.6582 N   0  0  0  0  0  0  0  0  0  0  0  0
    1.6435    1.2806  -11.7005 C   0  0  0  0  0  0  0  0  0  0  0  0
    1.4230    0.3877  -12.9244 C   0  0  0  0  0  0  0  0  0  0  0  0
    1.4129    1.1972  -14.1033 O   0  0  0  0  0  0  0  0  0  0  0  0
    0.4054    2.2122  -14.0961 C   0  0  0  0  0  0  0  0  0  0  0  0
    0.6155    3.1237  -12.8840 C   0  0  0  0  0  0  0  0  0  0  0  0
    0.4866    3.7462   -3.1391 C   0  0  0  0  0  0  0  0  0  0  0  0
    1.9588    3.8101   -2.7272 C   0  0  0  0  0  0  0  0  0  0  0  0
    2.4332    2.4159   -2.3122 C   0  0  0  0  0  0  0  0  0  0  0  0
    3.9053    2.4798   -1.9003 C   0  0  0  0  0  0  0  0  0  0  0  0
    4.0642    3.4440   -0.7231 C   0  0  0  0  0  0  0  0  0  0  0  0
    3.5898    4.8381   -1.1381 C   0  0  0  0  0  0  0  0  0  0  0  0
    2.1176    4.7743   -1.5499 C   0  0  0  0  0  0  0  0  0  0  0  0
    0.1954   -3.6792   -2.3503 H   0  0  0  0  0  0  0  0  0  0  0  0
    1.3654   -2.3520   -2.5448 H   0  0  0  0  0  0  0  0  0  0  0  0
    1.4537   -3.4145   -1.1195 H   0  0  0  0  0  0  0  0  0  0  0  0
   -3.2832    0.7886   -1.0495 H   0  0  0  0  0  0  0  0  0  0  0  0
   -2.3358    1.4761    0.2915 H   0  0  0  0  0  0  0  0  0  0  0  0
   -1.7881    1.6932   -1.3882 H   0  0  0  0  0  0  0  0  0  0  0  0
   -0.8999   -2.1038   -3.9325 H   0  0  0  0  0  0  0  0  0  0  0  0
   -0.5482   -1.1639   -6.1814 H   0  0  0  0  0  0  0  0  0  0  0  0
    0.8428    4.1015   -8.1173 H   0  0  0  0  0  0  0  0  0  0  0  0
    1.1814    1.4998   -9.1626 H   0  0  0  0  0  0  0  0  0  0  0  0
   -0.5454    1.9214   -9.2558 H   0  0  0  0  0  0  0  0  0  0  0  0
    0.0251    3.9797  -10.5153 H   0  0  0  0  0  0  0  0  0  0  0  0
    1.7519    3.5581  -10.4222 H   0  0  0  0  0  0  0  0  0  0  0  0
    2.6216    1.7568  -11.7689 H   0  0  0  0  0  0  0  0  0  0  0  0
    1.5950    0.6756  -10.7951 H   0  0  0  0  0  0  0  0  0  0  0  0
    2.2289   -0.3432  -12.9917 H   0  0  0  0  0  0  0  0  0  0  0  0
    0.4684   -0.1299  -12.8301 H   0  0  0  0  0  0  0  0  0  0  0  0
    0.4753    2.8010  -15.0107 H   0  0  0  0  0  0  0  0  0  0  0  0
   -0.5788    1.7477  -14.0359 H   0  0  0  0  0  0  0  0  0  0  0  0
   -0.1833    3.8641  -12.8426 H   0  0  0  0  0  0  0  0  0  0  0  0
    1.5772    3.6294  -12.9713 H   0  0  0  0  0  0  0  0  0  0  0  0
    0.1216    4.7534   -3.3402 H   0  0  0  0  0  0  0  0  0  0  0  0
   -0.0973    3.3024   -2.3328 H   0  0  0  0  0  0  0  0  0  0  0  0
    2.5564    4.1619   -3.5682 H   0  0  0  0  0  0  0  0  0  0  0  0
    1.8355    2.0641   -1.4713 H   0  0  0  0  0  0  0  0  0  0  0  0
    2.3200    1.7290   -3.1509 H   0  0  0  0  0  0  0  0  0  0  0  0
    4.2433    1.4866   -1.6047 H   0  0  0  0  0  0  0  0  0  0  0  0
    4.5029    2.8316   -2.7413 H   0  0  0  0  0  0  0  0  0  0  0  0
    3.4665    3.0922    0.1179 H   0  0  0  0  0  0  0  0  0  0  0  0
    5.1129    3.4894   -0.4296 H   0  0  0  0  0  0  0  0  0  0  0  0
    3.7029    5.5250   -0.2993 H   0  0  0  0  0  0  0  0  0  0  0  0
    4.1874    5.1899   -1.9790 H   0  0  0  0  0  0  0  0  0  0  0  0
    1.7797    5.7675   -1.8456 H   0  0  0  0  0  0  0  0  0  0  0  0
    1.5200    4.4225   -0.7090 H   0  0  0  0  0  0  0  0  0  0  0  0
  1  2  1  0  0  0  0
  1 35  1  0  0  0  0
  1 36  1  0  0  0  0
  1 37  1  0  0  0  0
  2  6  2  0  0  0  0
  2  3  1  0  0  0  0
  3  4  2  0  0  0  0
  3  8  1  0  0  0  0
  4  5  1  0  0  0  0
  4  7  1  0  0  0  0
  5  6  1  0  0  0  0
  7 38  1  0  0  0  0
  7 39  1  0  0  0  0
  7 40  1  0  0  0  0
  8 13  2  0  0  0  0
  8  9  1  0  0  0  0
  9 10  2  0  0  0  0
  9 41  1  0  0  0  0
 10 11  1  0  0  0  0
 10 42  1  0  0  0  0
 11 18  1  0  0  0  0
 11 12  2  0  0  0  0
 12 13  1  0  0  0  0
 12 14  1  0  0  0  0
 14 15  1  0  0  0  0
 14 28  1  0  0  0  0
 15 16  2  0  0  0  0
 15 17  1  0  0  0  0
 17 18  2  0  0  0  0
 17 19  1  0  0  0  0
 19 20  1  0  0  0  0
 19 43  1  0  0  0  0
 20 21  1  0  0  0  0
 20 44  1  0  0  0  0
 20 45  1  0  0  0  0
 21 22  1  0  0  0  0
 21 46  1  0  0  0  0
 21 47  1  0  0  0  0
 22 27  1  0  0  0  0
 22 23  1  0  0  0  0
 23 24  1  0  0  0  0
 23 48  1  0  0  0  0
 23 49  1  0  0  0  0
 24 25  1  0  0  0  0
 24 50  1  0  0  0  0
 24 51  1  0  0  0  0
 25 26  1  0  0  0  0
 26 27  1  0  0  0  0
 26 52  1  0  0  0  0
 26 53  1  0  0  0  0
 27 54  1  0  0  0  0
 27 55  1  0  0  0  0
 28 29  1  0  0  0  0
 28 56  1  0  0  0  0
 28 57  1  0  0  0  0
 29 34  1  0  0  0  0
 29 30  1  0  0  0  0
 29 58  1  0  0  0  0
 30 31  1  0  0  0  0
 30 59  1  0  0  0  0
 30 60  1  0  0  0  0
 31 32  1  0  0  0  0
 31 61  1  0  0  0  0
 31 62  1  0  0  0  0
 32 33  1  0  0  0  0
 32 63  1  0  0  0  0
 32 64  1  0  0  0  0
 33 34  1  0  0  0  0
 33 65  1  0  0  0  0
 33 66  1  0  0  0  0
 34 67  1  0  0  0  0
 34 68  1  0  0  0  0
M  END
$$$$
CHEMBL550817
  -OEChem-07121202283D

 69 73  0     0  0  0  0  0  0999 V2000
    0.7817   -2.9255   -1.8247 C   0  0  0  0  0  0  0  0  0  0  0  0
   -0.1437   -2.0000   -1.0775 C   0  0  0  0  0  0  0  0  0  0  0  0
   -0.7101   -0.8029   -1.5814 C   0  0  0  0  0  0  0  0  0  0  0  0
   -1.4834   -0.2660   -0.5990 C   0  0  0  0  0  0  0  0  0  0  0  0
   -1.4126   -1.0749    0.4670 O   0  0  0  0  0  0  0  0  0  0  0  0
   -0.5675   -2.1626    0.1414 N   0  0  0  0  0  0  0  0  0  0  0  0
   -2.2776    1.0114   -0.6928 C   0  0  0  0  0  0  0  0  0  0  0  0
   -0.4980   -0.2374   -2.9340 C   0  0  0  0  0  0  0  0  0  0  0  0
   -0.6391   -1.0628   -4.0539 C   0  0  0  0  0  0  0  0  0  0  0  0
   -0.4445   -0.5436   -5.3034 C   0  0  0  0  0  0  0  0  0  0  0  0
   -0.1057    0.8162   -5.4199 C   0  0  0  0  0  0  0  0  0  0  0  0
    0.0206    1.5915   -4.2521 C   0  0  0  0  0  0  0  0  0  0  0  0
   -0.1830    1.0436   -3.0625 N   0  0  0  0  0  0  0  0  0  0  0  0
    0.3525    2.9280   -4.3469 N   0  0  0  0  0  0  0  0  0  0  0  0
    0.5516    3.4720   -5.5666 C   0  0  0  0  0  0  0  0  0  0  0  0
    0.8454    4.6482   -5.6758 O   0  0  0  0  0  0  0  0  0  0  0  0
    0.4092    2.6246   -6.7639 C   0  0  0  0  0  0  0  0  0  0  0  0
    0.0928    1.3603   -6.6360 N   0  0  0  0  0  0  0  0  0  0  0  0
    0.6091    3.1649   -8.0230 N   0  0  0  0  0  0  0  0  0  0  0  0
    0.4674    2.3219   -9.2127 C   0  0  0  0  0  0  0  0  0  0  0  0
    0.7390    3.1576  -10.4652 C   0  0  0  0  0  0  0  0  0  0  0  0
    0.5970    2.3123  -11.6582 N   0  3  0  0  0  0  0  0  0  0  0  0
    1.6381    1.2754  -11.6508 C   0  0  0  0  0  0  0  0  0  0  0  0
    1.4878    0.3959  -12.8946 C   0  0  0  0  0  0  0  0  0  0  0  0
    1.5707    1.2151  -14.0641 O   0  0  0  0  0  0  0  0  0  0  0  0
    0.5909    2.2563  -14.1060 C   0  0  0  0  0  0  0  0  0  0  0  0
    0.7395    3.1393  -12.8644 C   0  0  0  0  0  0  0  0  0  0  0  0
    0.4866    3.7462   -3.1391 C   0  0  0  0  0  0  0  0  0  0  0  0
    1.9588    3.8101   -2.7272 C   0  0  0  0  0  0  0  0  0  0  0  0
    2.4332    2.4159   -2.3122 C   0  0  0  0  0  0  0  0  0  0  0  0
    3.9053    2.4798   -1.9003 C   0  0  0  0  0  0  0  0  0  0  0  0
    4.0642    3.4440   -0.7231 C   0  0  0  0  0  0  0  0  0  0  0  0
    3.5898    4.8381   -1.1381 C   0  0  0  0  0  0  0  0  0  0  0  0
    2.1176    4.7743   -1.5499 C   0  0  0  0  0  0  0  0  0  0  0  0
    0.1954   -3.6792   -2.3503 H   0  0  0  0  0  0  0  0  0  0  0  0
    1.3654   -2.3520   -2.5448 H   0  0  0  0  0  0  0  0  0  0  0  0
    1.4537   -3.4145   -1.1195 H   0  0  0  0  0  0  0  0  0  0  0  0
   -3.2832    0.7886   -1.0495 H   0  0  0  0  0  0  0  0  0  0  0  0
   -2.3358    1.4761    0.2915 H   0  0  0  0  0  0  0  0  0  0  0  0
   -1.7881    1.6932   -1.3882 H   0  0  0  0  0  0  0  0  0  0  0  0
   -0.8999   -2.1038   -3.9325 H   0  0  0  0  0  0  0  0  0  0  0  0
   -0.5482   -1.1639   -6.1814 H   0  0  0  0  0  0  0  0  0  0  0  0
    0.8428    4.1015   -8.1173 H   0  0  0  0  0  0  0  0  0  0  0  0
    1.1814    1.4998   -9.1626 H   0  0  0  0  0  0  0  0  0  0  0  0
   -0.5454    1.9214   -9.2558 H   0  0  0  0  0  0  0  0  0  0  0  0
    0.0251    3.9797  -10.5153 H   0  0  0  0  0  0  0  0  0  0  0  0
    1.7519    3.5581  -10.4222 H   0  0  0  0  0  0  0  0  0  0  0  0
    2.6208    1.7468  -11.6553 H   0  0  0  0  0  0  0  0  0  0  0  0
    1.5332    0.6612  -10.7564 H   0  0  0  0  0  0  0  0  0  0  0  0
    2.2850   -0.3472  -12.9134 H   0  0  0  0  0  0  0  0  0  0  0  0
    0.5211   -0.1070  -12.8701 H   0  0  0  0  0  0  0  0  0  0  0  0
    0.7390    2.8597  -15.0016 H   0  0  0  0  0  0  0  0  0  0  0  0
   -0.4065    1.8171  -14.1230 H   0  0  0  0  0  0  0  0  0  0  0  0
   -0.0324    3.9088  -12.8710 H   0  0  0  0  0  0  0  0  0  0  0  0
    1.7226    3.6100  -12.8685 H   0  0  0  0  0  0  0  0  0  0  0  0
    0.1216    4.7534   -3.3402 H   0  0  0  0  0  0  0  0  0  0  0  0
   -0.0973    3.3024   -2.3328 H   0  0  0  0  0  0  0  0  0  0  0  0
    2.5564    4.1619   -3.5682 H   0  0  0  0  0  0  0  0  0  0  0  0
    1.8355    2.0641   -1.4713 H   0  0  0  0  0  0  0  0  0  0  0  0
    2.3200    1.7290   -3.1509 H   0  0  0  0  0  0  0  0  0  0  0  0
    4.2433    1.4866   -1.6047 H   0  0  0  0  0  0  0  0  0  0  0  0
    4.5029    2.8316   -2.7413 H   0  0  0  0  0  0  0  0  0  0  0  0
    3.4665    3.0922    0.1179 H   0  0  0  0  0  0  0  0  0  0  0  0
    5.1129    3.4894   -0.4296 H   0  0  0  0  0  0  0  0  0  0  0  0
    3.7029    5.5250   -0.2993 H   0  0  0  0  0  0  0  0  0  0  0  0
    4.1874    5.1899   -1.9790 H   0  0  0  0  0  0  0  0  0  0  0  0
    1.7797    5.7675   -1.8456 H   0  0  0  0  0  0  0  0  0  0  0  0
    1.5200    4.4225   -0.7090 H   0  0  0  0  0  0  0  0  0  0  0  0
   -0.3127    1.8759  -11.6550 H   0  0  0  0  0  0  0  0  0  0  0  0
  1  2  1  0  0  0  0
  1 35  1  0  0  0  0
  1 36  1  0  0  0  0
  1 37  1  0  0  0  0
  2  6  2  0  0  0  0
  2  3  1  0  0  0  0
  3  4  2  0  0  0  0
  3  8  1  0  0  0  0
  4  5  1  0  0  0  0
  4  7  1  0  0  0  0
  5  6  1  0  0  0  0
  7 38  1  0  0  0  0
  7 39  1  0  0  0  0
  7 40  1  0  0  0  0
  8 13  2  0  0  0  0
  8  9  1  0  0  0  0
  9 10  2  0  0  0  0
  9 41  1  0  0  0  0
 10 11  1  0  0  0  0
 10 42  1  0  0  0  0
 11 18  1  0  0  0  0
 11 12  2  0  0  0  0
 12 13  1  0  0  0  0
 12 14  1  0  0  0  0
 14 15  1  0  0  0  0
 14 28  1  0  0  0  0
 15 16  2  0  0  0  0
 15 17  1  0  0  0  0
 17 18  2  0  0  0  0
 17 19  1  0  0  0  0
 19 20  1  0  0  0  0
 19 43  1  0  0  0  0
 20 21  1  0  0  0  0
 20 44  1  0  0  0  0
 20 45  1  0  0  0  0
 21 22  1  0  0  0  0
 21 46  1  0  0  0  0
 21 47  1  0  0  0  0
 22 27  1  0  0  0  0
 22 23  1  0  0  0  0
 22 69  1  0  0  0  0
 23 24  1  0  0  0  0
 23 48  1  0  0  0  0
 23 49  1  0  0  0  0
 24 25  1  0  0  0  0
 24 50  1  0  0  0  0
 24 51  1  0  0  0  0
 25 26  1  0  0  0  0
 26 27  1  0  0  0  0
 26 52  1  0  0  0  0
 26 53  1  0  0  0  0
 27 54  1  0  0  0  0
 27 55  1  0  0  0  0
 28 29  1  0  0  0  0
 28 56  1  0  0  0  0
 28 57  1  0  0  0  0
 29 34  1  0  0  0  0
 29 30  1  0  0  0  0
 29 58  1  0  0  0  0
 30 31  1  0  0  0  0
 30 59  1  0  0  0  0
 30 60  1  0  0  0  0
 31 32  1  0  0  0  0
 31 61  1  0  0  0  0
 31 62  1  0  0  0  0
 32 33  1  0  0  0  0
 32 63  1  0  0  0  0
 32 64  1  0  0  0  0
 33 34  1  0  0  0  0
 33 65  1  0  0  0  0
 33 66  1  0  0  0  0
 34 67  1  0  0  0  0
 34 68  1  0  0  0  0
M  CHG  1  22   1
M  END
$$$$
CHEMBL541818
  -OEChem-07121202283D

 70 74  0     0  0  0  0  0  0999 V2000
   -1.1356    1.0937   -2.0931 C   0  0  0  0  0  0  0  0  0  0  0  0
   -0.8819   -0.3277   -1.6615 C   0  0  0  0  0  0  0  0  0  0  0  0
   -1.1101   -1.3709   -2.5475 C   0  0  0  0  0  0  0  0  0  0  0  0
   -0.8779   -2.6786   -2.1552 C   0  0  0  0  0  0  0  0  0  0  0  0
   -0.4137   -2.9464   -0.8668 C   0  0  0  0  0  0  0  0  0  0  0  0
   -0.1855   -1.8944    0.0210 C   0  0  0  0  0  0  0  0  0  0  0  0
   -0.4153   -0.5892   -0.3812 C   0  0  0  0  0  0  0  0  0  0  0  0
   -0.1880    0.4365    0.4808 O   0  0  0  0  0  0  0  0  0  0  0  0
    0.2920    0.0954    1.7829 C   0  0  0  0  0  0  0  0  0  0  0  0
   -0.1647   -4.3415   -0.4433 C   0  0  0  0  0  0  0  0  0  0  0  0
   -0.9725   -4.9521    0.6220 C   0  0  0  0  0  0  0  0  0  0  0  0
   -1.9905   -4.2474    1.2636 C   0  0  0  0  0  0  0  0  0  0  0  0
   -2.7185   -4.8532    2.2494 C   0  0  0  0  0  0  0  0  0  0  0  0
   -2.4555   -6.1693    2.6222 C   0  0  0  0  0  0  0  0  0  0  0  0
   -1.4498   -6.8899    1.9998 C   0  0  0  0  0  0  0  0  0  0  0  0
   -0.6987   -6.2878    0.9936 C   0  0  0  0  0  0  0  0  0  0  0  0
    0.3793   -7.0080    0.3011 C   0  0  0  0  0  0  0  0  0  0  0  0
    0.6348   -8.1597    0.6022 O   0  0  0  0  0  0  0  0  0  0  0  0
    1.0833   -6.3921   -0.6672 N   0  0  0  0  0  0  0  0  0  0  0  0
    0.8267   -5.0905   -1.0475 C   0  0  0  0  0  0  0  0  0  0  0  0
    1.6305   -4.4853   -2.1154 C   0  0  0  0  0  0  0  0  0  0  0  0
    1.3757   -3.3624   -2.5062 O   0  0  0  0  0  0  0  0  0  0  0  0
    2.6523   -5.1745   -2.6637 O   0  0  0  0  0  0  0  0  0  0  0  0
    3.4632   -4.4842   -3.6166 C   0  0  0  0  0  0  0  0  0  0  0  0
    2.1058   -7.0973   -1.3137 C   0  0  0  0  0  0  0  0  0  0  0  0
    3.4203   -6.9637   -0.8847 C   0  0  0  0  0  0  0  0  0  0  0  0
    4.4282   -7.6587   -1.5219 C   0  0  0  0  0  0  0  0  0  0  0  0
    4.1281   -8.4920   -2.5922 C   0  0  0  0  0  0  0  0  0  0  0  0
    2.8135   -8.6256   -3.0212 C   0  0  0  0  0  0  0  0  0  0  0  0
    1.8050   -7.9349   -2.3803 C   0  0  0  0  0  0  0  0  0  0  0  0
    5.1491   -9.1957   -3.2380 N   0  0  0  0  0  0  0  0  0  0  0  0
   -3.1914   -6.7508    3.6047 O   0  0  0  0  0  0  0  0  0  0  0  0
   -4.2134   -5.9544    4.2074 C   0  0  0  0  0  0  0  0  0  0  0  0
   -4.9188   -6.7606    5.2674 C   0  0  0  0  0  0  0  0  0  0  0  0
   -4.5222   -8.0617    5.5130 C   0  0  0  0  0  0  0  0  0  0  0  0
   -5.1776   -8.7947    6.4902 C   0  0  0  0  0  0  0  0  0  0  0  0
   -6.2122   -8.1888    7.1870 C   0  0  0  0  0  0  0  0  0  0  0  0
   -6.5531   -6.8839    6.8862 C   0  0  0  0  0  0  0  0  0  0  0  0
   -5.9037   -6.2148    5.9534 N   0  0  0  0  0  0  0  0  0  0  0  0
   -1.5627   -1.1090   -3.8020 O   0  0  0  0  0  0  0  0  0  0  0  0
   -1.7761   -2.2302   -4.6619 C   0  0  0  0  0  0  0  0  0  0  0  0
   -0.2289    1.5064   -2.5355 H   0  0  0  0  0  0  0  0  0  0  0  0
   -1.9397    1.1121   -2.8286 H   0  0  0  0  0  0  0  0  0  0  0  0
   -1.4216    1.6907   -1.2271 H   0  0  0  0  0  0  0  0  0  0  0  0
   -1.0561   -3.4900   -2.8453 H   0  0  0  0  0  0  0  0  0  0  0  0
    0.1739   -2.0974    1.0190 H   0  0  0  0  0  0  0  0  0  0  0  0
    1.2436   -0.4284    1.6936 H   0  0  0  0  0  0  0  0  0  0  0  0
    0.4310    1.0042    2.3685 H   0  0  0  0  0  0  0  0  0  0  0  0
   -0.4327   -0.5497    2.2798 H   0  0  0  0  0  0  0  0  0  0  0  0
   -2.2028   -3.2264    0.9829 H   0  0  0  0  0  0  0  0  0  0  0  0
   -3.5062   -4.3051    2.7450 H   0  0  0  0  0  0  0  0  0  0  0  0
   -1.2495   -7.9099    2.2926 H   0  0  0  0  0  0  0  0  0  0  0  0
    4.2949   -5.1221   -3.9158 H   0  0  0  0  0  0  0  0  0  0  0  0
    2.8631   -4.2352   -4.4918 H   0  0  0  0  0  0  0  0  0  0  0  0
    3.8501   -3.5688   -3.1689 H   0  0  0  0  0  0  0  0  0  0  0  0
    3.6537   -6.3156   -0.0529 H   0  0  0  0  0  0  0  0  0  0  0  0
    5.4502   -7.5545   -1.1886 H   0  0  0  0  0  0  0  0  0  0  0  0
    2.5802   -9.2731   -3.8535 H   0  0  0  0  0  0  0  0  0  0  0  0
    0.7824   -8.0421   -2.7109 H   0  0  0  0  0  0  0  0  0  0  0  0
    6.0670   -9.1022   -2.9387 H   0  0  0  0  0  0  0  0  0  0  0  0
    4.9395   -9.7775   -3.9853 H   0  0  0  0  0  0  0  0  0  0  0  0
   -3.7651   -5.0706    4.6613 H   0  0  0  0  0  0  0  0  0  0  0  0
   -4.9311   -5.6477    3.4465 H   0  0  0  0  0  0  0  0  0  0  0  0
   -3.7121   -8.5019    4.9505 H   0  0  0  0  0  0  0  0  0  0  0  0
   -4.8896   -9.8134    6.7036 H   0  0  0  0  0  0  0  0  0  0  0  0
   -6.7451   -8.7301    7.9547 H   0  0  0  0  0  0  0  0  0  0  0  0
   -7.3577   -6.4048    7.4243 H   0  0  0  0  0  0  0  0  0  0  0  0
   -2.5166   -2.8943   -4.2160 H   0  0  0  0  0  0  0  0  0  0  0  0
   -2.1362   -1.8822   -5.6300 H   0  0  0  0  0  0  0  0  0  0  0  0
   -0.8383   -2.7694   -4.7955 H   0  0  0  0  0  0  0  0  0  0  0  0
  1  2  1  0  0  0  0
  1 42  1  0  0  0  0
  1 43  1  0  0  0  0
  1 44  1  0  0  0  0
  2  7  2  0  0  0  0
  2  3  1  0  0  0  0
  3  4  2  0  0  0  0
  3 40  1  0  0  0  0
  4  5  1  0  0  0  0
  4 45  1  0  0  0  0
  5  6  2  0  0  0  0
  5 10  1  0  0  0  0
  6  7  1  0  0  0  0
  6 46  1  0  0  0  0
  7  8  1  0  0  0  0
  8  9  1  0  0  0  0
  9 47  1  0  0  0  0
  9 48  1  0  0  0  0
  9 49  1  0  0  0  0
 10 20  2  0  0  0  0
 10 11  1  0  0  0  0
 11 16  2  0  0  0  0
 11 12  1  0  0  0  0
 12 13  2  0  0  0  0
 12 50  1  0  0  0  0
 13 14  1  0  0  0  0
 13 51  1  0  0  0  0
 14 15  2  0  0  0  0
 14 32  1  0  0  0  0
 15 16  1  0  0  0  0
 15 52  1  0  0  0  0
 16 17  1  0  0  0  0
 17 18  2  0  0  0  0
 17 19  1  0  0  0  0
 19 20  1  0  0  0  0
 19 25  1  0  0  0  0
 20 21  1  0  0  0  0
 21 22  2  0  0  0  0
 21 23  1  0  0  0  0
 23 24  1  0  0  0  0
 24 53  1  0  0  0  0
 24 54  1  0  0  0  0
 24 55  1  0  0  0  0
 25 30  2  0  0  0  0
 25 26  1  0  0  0  0
 26 27  2  0  0  0  0
 26 56  1  0  0  0  0
 27 28  1  0  0  0  0
 27 57  1  0  0  0  0
 28 29  2  0  0  0  0
 28 31  1  0  0  0  0
 29 30  1  0  0  0  0
 29 58  1  0  0  0  0
 30 59  1  0  0  0  0
 31 60  1  0  0  0  0
 31 61  1  0  0  0  0
 32 33  1  0  0  0  0
 33 34  1  0  0  0  0
 33 62  1  0  0  0  0
 33 63  1  0  0  0  0
 34 39  2  0  0  0  0
 34 35  1  0  0  0  0
 35 36  2  0  0  0  0
 35 64  1  0  0  0  0
 36 37  1  0  0  0  0
 36 65  1  0  0  0  0
 37 38  2  0  0  0  0
 37 66  1  0  0  0  0
 38 39  1  0  0  0  0
 38 67  1  0  0  0  0
 40 41  1  0  0  0  0
 41 68  1  0  0  0  0
 41 69  1  0  0  0  0
 41 70  1  0  0  0  0
M  END
$$$$
CHEMBL553819
  -OEChem-07121202283D

 37 40  0     0  0  0  0  0  0999 V2000
   -0.0167    1.3786    0.0096 C   0  0  0  0  0  0  0  0  0  0  0  0
    1.1814    2.0722    0.0019 C   0  0  0  0  0  0  0  0  0  0  0  0
    2.3716    1.3392   -0.0134 C   0  0  0  0  0  0  0  0  0  0  0  0
    2.3057   -0.0531   -0.0202 C   0  0  0  0  0  0  0  0  0  0  0  0
    1.1415   -0.6689   -0.0124 N   0  0  0  0  0  0  0  0  0  0  0  0
    0.0021   -0.0041    0.0020 C   0  0  0  0  0  0  0  0  0  0  0  0
    3.6829    2.0315   -0.0227 C   0  0  0  0  0  0  0  0  0  0  0  0
    3.7013    3.3513   -0.0108 N   0  0  0  0  0  0  0  0  0  0  0  0
    4.8659    4.0137   -0.0186 C   0  0  0  0  0  0  0  0  0  0  0  0
    4.9216    5.4148   -0.0059 C   0  0  0  0  0  0  0  0  0  0  0  0
    6.1324    6.0406   -0.0143 C   0  0  0  0  0  0  0  0  0  0  0  0
    7.3180    5.3094   -0.0352 C   0  0  0  0  0  0  0  0  0  0  0  0
    7.2993    3.9444   -0.0480 C   0  0  0  0  0  0  0  0  0  0  0  0
    6.0729    3.2718   -0.0399 C   0  0  0  0  0  0  0  0  0  0  0  0
    5.9924    1.8568   -0.0518 C   0  0  0  0  0  0  0  0  0  0  0  0
    4.7927    1.2958   -0.0372 N   0  0  0  0  0  0  0  0  0  0  0  0
    7.1340    1.0838   -0.0729 N   0  0  0  0  0  0  0  0  0  0  0  0
    7.0292   -0.3774   -0.0850 C   0  0  0  0  0  0  0  0  0  0  0  0
    8.4103   -0.9799   -0.1075 C   0  0  0  0  0  0  0  0  0  0  0  0
    9.1425   -1.3094    0.9717 C   0  0  0  0  0  0  0  0  0  0  0  0
   10.3633   -1.8377    0.4927 C   0  0  0  0  0  0  0  0  0  0  0  0
   10.3041   -1.7996   -0.8506 C   0  0  0  0  0  0  0  0  0  0  0  0
    9.1165   -1.2844   -1.2086 O   0  0  0  0  0  0  0  0  0  0  0  0
    8.8396    6.1452   -0.0459 Cl  0  0  0  0  0  0  0  0  0  0  0  0
   -0.9558    1.9116    0.0259 H   0  0  0  0  0  0  0  0  0  0  0  0
    1.1961    3.1521    0.0072 H   0  0  0  0  0  0  0  0  0  0  0  0
    3.2173   -0.6320   -0.0324 H   0  0  0  0  0  0  0  0  0  0  0  0
   -0.9308   -0.5483    0.0084 H   0  0  0  0  0  0  0  0  0  0  0  0
    4.0105    5.9946    0.0100 H   0  0  0  0  0  0  0  0  0  0  0  0
    6.1733    7.1198   -0.0048 H   0  0  0  0  0  0  0  0  0  0  0  0
    8.2247    3.3879   -0.0646 H   0  0  0  0  0  0  0  0  0  0  0  0
    8.0066    1.5075   -0.0798 H   0  0  0  0  0  0  0  0  0  0  0  0
    6.5017   -0.7112    0.8085 H   0  0  0  0  0  0  0  0  0  0  0  0
    6.4798   -0.6949   -0.9713 H   0  0  0  0  0  0  0  0  0  0  0  0
    8.8536   -1.1921    2.0057 H   0  0  0  0  0  0  0  0  0  0  0  0
   11.1857   -2.2018    1.0906 H   0  0  0  0  0  0  0  0  0  0  0  0
   11.0785   -2.1308   -1.5266 H   0  0  0  0  0  0  0  0  0  0  0  0
  1  6  2  0  0  0  0
  1  2  1  0  0  0  0
  1 25  1  0  0  0  0
  2  3  2  0  0  0  0
  2 26  1  0  0  0  0
  3  4  1  0  0  0  0
  3  7  1  0  0  0  0
  4  5  2  0  0  0  0
  4 27  1  0  0  0  0
  5  6  1  0  0  0  0
  6 28  1  0  0  0  0
  7 16  2  0  0  0  0
  7  8  1  0  0  0  0
  8  9  2  0  0  0  0
  9 14  1  0  0  0  0
  9 10  1  0  0  0  0
 10 11  2  0  0  0  0
 10 29  1  0  0  0  0
 11 12  1  0  0  0  0
 11 30  1  0  0  0  0
 12 13  2  0  0  0  0
 12 24  1  0  0  0  0
 13 14  1  0  0  0  0
 13 31  1  0  0  0  0
 14 15  2  0  0  0  0
 15 16  1  0  0  0  0
 15 17  1  0  0  0  0
 17 18  1  0  0  0  0
 17 32  1  0  0  0  0
 18 19  1  0  0  0  0
 18 33  1  0  0  0  0
 18 34  1  0  0  0  0
 19 23  1  0  0  0  0
 19 20  2  0  0  0  0
 20 21  1  0  0  0  0
 20 35  1  0  0  0  0
 21 22  2  0  0  0  0
 21 36  1  0  0  0  0
 22 23  1  0  0  0  0
 22 37  1  0  0  0  0
M  END
$$$$
CHEMBL553729
  -OEChem-07121202283D

 70 74  0     0  0  0  0  0  0999 V2000
   -0.3579    2.9345    0.7545 C   0  0  0  0  0  0  0  0  0  0  0  0
    0.0486    1.6736    0.2189 O   0  0  0  0  0  0  0  0  0  0  0  0
   -0.9372    0.8021   -0.1250 C   0  0  0  0  0  0  0  0  0  0  0  0
   -2.2631    1.1569    0.0445 C   0  0  0  0  0  0  0  0  0  0  0  0
   -3.2749    0.2617   -0.3093 C   0  0  0  0  0  0  0  0  0  0  0  0
   -2.9448   -0.9898   -0.8335 C   0  0  0  0  0  0  0  0  0  0  0  0
   -1.6174   -1.3398   -1.0011 C   0  0  0  0  0  0  0  0  0  0  0  0
   -0.6109   -0.4438   -0.6526 C   0  0  0  0  0  0  0  0  0  0  0  0
    0.6935   -0.7883   -0.8232 O   0  0  0  0  0  0  0  0  0  0  0  0
    1.3397   -1.4437    0.2700 C   0  0  0  0  0  0  0  0  0  0  0  0
   -1.2952   -2.5587   -1.5111 O   0  0  0  0  0  0  0  0  0  0  0  0
   -2.3784   -3.4262   -1.8518 C   0  0  0  0  0  0  0  0  0  0  0  0
   -4.6926    0.6381   -0.1288 C   0  0  0  0  0  0  0  0  0  0  0  0
   -5.2362    0.8693    1.2158 C   0  0  0  0  0  0  0  0  0  0  0  0
   -4.4440    0.7440    2.3632 C   0  0  0  0  0  0  0  0  0  0  0  0
   -5.0284    0.9773    3.5791 C   0  0  0  0  0  0  0  0  0  0  0  0
   -6.3787    1.3287    3.6413 C   0  0  0  0  0  0  0  0  0  0  0  0
   -7.1118    1.4422    2.5501 N   0  0  0  0  0  0  0  0  0  0  0  0
   -6.5932    1.2271    1.3470 C   0  0  0  0  0  0  0  0  0  0  0  0
   -7.4081    1.3538    0.1259 C   0  0  0  0  0  0  0  0  0  0  0  0
   -8.5830    1.6619    0.2071 O   0  0  0  0  0  0  0  0  0  0  0  0
   -6.8526    1.1291   -1.0791 N   0  0  0  0  0  0  0  0  0  0  0  0
   -5.5246    0.7832   -1.2242 C   0  0  0  0  0  0  0  0  0  0  0  0
   -4.9850    0.5589   -2.5691 C   0  0  0  0  0  0  0  0  0  0  0  0
   -3.7940    0.3670   -2.7222 O   0  0  0  0  0  0  0  0  0  0  0  0
   -5.8099    0.5654   -3.6366 O   0  0  0  0  0  0  0  0  0  0  0  0
   -5.2367    0.2282   -4.9014 C   0  0  0  0  0  0  0  0  0  0  0  0
   -7.6477    1.2553   -2.2245 C   0  0  0  0  0  0  0  0  0  0  0  0
   -8.2820    0.1395   -2.7561 C   0  0  0  0  0  0  0  0  0  0  0  0
   -9.0659    0.2639   -3.8853 C   0  0  0  0  0  0  0  0  0  0  0  0
   -9.2205    1.5049   -4.4902 C   0  0  0  0  0  0  0  0  0  0  0  0
   -8.5861    2.6207   -3.9586 C   0  0  0  0  0  0  0  0  0  0  0  0
   -7.8069    2.4973   -2.8261 C   0  0  0  0  0  0  0  0  0  0  0  0
  -10.0141    1.6309   -5.6342 N   0  0  0  0  0  0  0  0  0  0  0  0
   -6.9491    1.5579    4.8497 O   0  0  0  0  0  0  0  0  0  0  0  0
   -8.3329    1.9141    4.8569 C   0  0  0  0  0  0  0  0  0  0  0  0
   -8.7891    2.1284    6.2771 C   0  0  0  0  0  0  0  0  0  0  0  0
   -7.8888    1.9737    7.3145 C   0  0  0  0  0  0  0  0  0  0  0  0
   -8.3187    2.1731    8.6173 C   0  0  0  0  0  0  0  0  0  0  0  0
   -9.6439    2.5223    8.8289 C   0  0  0  0  0  0  0  0  0  0  0  0
  -10.4861    2.6589    7.7419 C   0  0  0  0  0  0  0  0  0  0  0  0
  -10.0411    2.4665    6.5154 N   0  0  0  0  0  0  0  0  0  0  0  0
    0.5237    3.5322    0.9861 H   0  0  0  0  0  0  0  0  0  0  0  0
   -0.9708    3.4598    0.0220 H   0  0  0  0  0  0  0  0  0  0  0  0
   -0.9368    2.7734    1.6639 H   0  0  0  0  0  0  0  0  0  0  0  0
   -2.5158    2.1253    0.4505 H   0  0  0  0  0  0  0  0  0  0  0  0
   -3.7255   -1.6840   -1.1076 H   0  0  0  0  0  0  0  0  0  0  0  0
    1.3202   -0.7948    1.1456 H   0  0  0  0  0  0  0  0  0  0  0  0
    0.8182   -2.3739    0.4954 H   0  0  0  0  0  0  0  0  0  0  0  0
    2.3735   -1.6624    0.0027 H   0  0  0  0  0  0  0  0  0  0  0  0
   -1.9838   -4.3626   -2.2462 H   0  0  0  0  0  0  0  0  0  0  0  0
   -2.9749   -3.6293   -0.9623 H   0  0  0  0  0  0  0  0  0  0  0  0
   -3.0029   -2.9486   -2.6067 H   0  0  0  0  0  0  0  0  0  0  0  0
   -3.4016    0.4707    2.2914 H   0  0  0  0  0  0  0  0  0  0  0  0
   -4.4482    0.8897    4.4858 H   0  0  0  0  0  0  0  0  0  0  0  0
   -6.0213    0.1891   -5.6571 H   0  0  0  0  0  0  0  0  0  0  0  0
   -4.5014    0.9830   -5.1799 H   0  0  0  0  0  0  0  0  0  0  0  0
   -4.7502   -0.7448   -4.8321 H   0  0  0  0  0  0  0  0  0  0  0  0
   -8.1615   -0.8253   -2.2860 H   0  0  0  0  0  0  0  0  0  0  0  0
   -9.5587   -0.6036   -4.2987 H   0  0  0  0  0  0  0  0  0  0  0  0
   -8.7061    3.5855   -4.4291 H   0  0  0  0  0  0  0  0  0  0  0  0
   -7.3176    3.3656   -2.4101 H   0  0  0  0  0  0  0  0  0  0  0  0
  -10.4568    0.8518   -6.0056 H   0  0  0  0  0  0  0  0  0  0  0  0
  -10.1221    2.4974   -6.0566 H   0  0  0  0  0  0  0  0  0  0  0  0
   -8.4746    2.8326    4.2872 H   0  0  0  0  0  0  0  0  0  0  0  0
   -8.9168    1.1124    4.4047 H   0  0  0  0  0  0  0  0  0  0  0  0
   -6.8636    1.7005    7.1127 H   0  0  0  0  0  0  0  0  0  0  0  0
   -7.6377    2.0589    9.4477 H   0  0  0  0  0  0  0  0  0  0  0  0
  -10.0133    2.6851    9.8306 H   0  0  0  0  0  0  0  0  0  0  0  0
  -11.5196    2.9306    7.8983 H   0  0  0  0  0  0  0  0  0  0  0  0
  1  2  1  0  0  0  0
  1 43  1  0  0  0  0
  1 44  1  0  0  0  0
  1 45  1  0  0  0  0
  2  3  1  0  0  0  0
  3  8  2  0  0  0  0
  3  4  1  0  0  0  0
  4  5  2  0  0  0  0
  4 46  1  0  0  0  0
  5  6  1  0  0  0  0
  5 13  1  0  0  0  0
  6  7  2  0  0  0  0
  6 47  1  0  0  0  0
  7  8  1  0  0  0  0
  7 11  1  0  0  0  0
  8  9  1  0  0  0  0
  9 10  1  0  0  0  0
 10 48  1  0  0  0  0
 10 49  1  0  0  0  0
 10 50  1  0  0  0  0
 11 12  1  0  0  0  0
 12 51  1  0  0  0  0
 12 52  1  0  0  0  0
 12 53  1  0  0  0  0
 13 23  2  0  0  0  0
 13 14  1  0  0  0  0
 14 19  2  0  0  0  0
 14 15  1  0  0  0  0
 15 16  2  0  0  0  0
 15 54  1  0  0  0  0
 16 17  1  0  0  0  0
 16 55  1  0  0  0  0
 17 18  2  0  0  0  0
 17 35  1  0  0  0  0
 18 19  1  0  0  0  0
 19 20  1  0  0  0  0
 20 21  2  0  0  0  0
 20 22  1  0  0  0  0
 22 23  1  0  0  0  0
 22 28  1  0  0  0  0
 23 24  1  0  0  0  0
 24 25  2  0  0  0  0
 24 26  1  0  0  0  0
 26 27  1  0  0  0  0
 27 56  1  0  0  0  0
 27 57  1  0  0  0  0
 27 58  1  0  0  0  0
 28 33  2  0  0  0  0
 28 29  1  0  0  0  0
 29 30  2  0  0  0  0
 29 59  1  0  0  0  0
 30 31  1  0  0  0  0
 30 60  1  0  0  0  0
 31 32  2  0  0  0  0
 31 34  1  0  0  0  0
 32 33  1  0  0  0  0
 32 61  1  0  0  0  0
 33 62  1  0  0  0  0
 34 63  1  0  0  0  0
 34 64  1  0  0  0  0
 35 36  1  0  0  0  0
 36 37  1  0  0  0  0
 36 65  1  0  0  0  0
 36 66  1  0  0  0  0
 37 42  2  0  0  0  0
 37 38  1  0  0  0  0
 38 39  2  0  0  0  0
 38 67  1  0  0  0  0
 39 40  1  0  0  0  0
 39 68  1  0  0  0  0
 40 41  2  0  0  0  0
 40 69  1  0  0  0  0
 41 42  1  0  0  0  0
 41 70  1  0  0  0  0
M  END
$$$$
CHEMBL542410
  -OEChem-07121202283D

 72 76  0     0  0  0  0  0  0999 V2000
   -3.2484   -6.2536   -3.3065 C   0  0  0  0  0  0  0  0  0  0  0  0
   -2.5369   -4.9742   -3.6645 C   0  0  0  0  0  0  0  0  0  0  0  0
   -1.5699   -4.4697   -2.8154 C   0  0  0  0  0  0  0  0  0  0  0  0
   -0.9214   -3.2922   -3.1540 C   0  0  0  0  0  0  0  0  0  0  0  0
   -1.2713   -2.6633   -4.3394 C   0  0  0  0  0  0  0  0  0  0  0  0
   -2.2478   -3.2273   -5.1380 C   0  0  0  0  0  0  0  0  0  0  0  0
   -2.8402   -4.3520   -4.7867 N   0  0  0  0  0  0  0  0  0  0  0  0
    0.1383   -2.7091   -2.2551 C   0  0  0  0  0  0  0  0  0  0  0  0
    1.4623   -3.1102   -2.7370 N   0  0  0  0  0  0  0  0  0  0  0  0
    2.1373   -2.2752   -3.6031 C   0  0  0  0  0  0  0  0  0  0  0  0
    3.3893   -2.6006   -4.0910 C   0  0  0  0  0  0  0  0  0  0  0  0
    4.0113   -3.8645   -3.6749 C   0  0  0  0  0  0  0  0  0  0  0  0
    5.2766   -4.2499   -4.1335 C   0  0  0  0  0  0  0  0  0  0  0  0
    5.7849   -5.4438   -3.6967 C   0  0  0  0  0  0  0  0  0  0  0  0
    5.0388   -6.2330   -2.8187 C   0  0  0  0  0  0  0  0  0  0  0  0
    3.8473   -5.8548   -2.3960 N   0  0  0  0  0  0  0  0  0  0  0  0
    3.3098   -4.7068   -2.7894 C   0  0  0  0  0  0  0  0  0  0  0  0
    1.9812   -4.2782   -2.3155 C   0  0  0  0  0  0  0  0  0  0  0  0
    1.3525   -4.9819   -1.5467 O   0  0  0  0  0  0  0  0  0  0  0  0
    5.5496   -7.4140   -2.3916 O   0  0  0  0  0  0  0  0  0  0  0  0
    4.7453   -8.1822   -1.4945 C   0  0  0  0  0  0  0  0  0  0  0  0
    5.4709   -9.4521   -1.1313 C   0  0  0  0  0  0  0  0  0  0  0  0
    5.2960  -10.5260   -1.8751 N   0  0  0  0  0  0  0  0  0  0  0  0
    5.9164  -11.6588   -1.5869 C   0  0  0  0  0  0  0  0  0  0  0  0
    6.7583  -11.7053   -0.4869 C   0  0  0  0  0  0  0  0  0  0  0  0
    6.9167  -10.5559    0.2711 C   0  0  0  0  0  0  0  0  0  0  0  0
    6.2675   -9.4579   -0.0814 N   0  0  0  0  0  0  0  0  0  0  0  0
    4.0918   -1.6896   -5.0187 C   0  0  0  0  0  0  0  0  0  0  0  0
    3.5632   -1.4387   -6.2867 C   0  0  0  0  0  0  0  0  0  0  0  0
    4.2225   -0.5858   -7.1531 C   0  0  0  0  0  0  0  0  0  0  0  0
    5.4120    0.0222   -6.7621 C   0  0  0  0  0  0  0  0  0  0  0  0
    5.9408   -0.2263   -5.4989 C   0  0  0  0  0  0  0  0  0  0  0  0
    5.2823   -1.0739   -4.6267 C   0  0  0  0  0  0  0  0  0  0  0  0
    7.1035    0.3690   -5.1200 O   0  0  0  0  0  0  0  0  0  0  0  0
    7.5888    0.0691   -3.8098 C   0  0  0  0  0  0  0  0  0  0  0  0
    6.0586    0.8601   -7.6160 O   0  0  0  0  0  0  0  0  0  0  0  0
    5.7098    2.2445   -7.5549 C   0  0  0  0  0  0  0  0  0  0  0  0
    3.7085   -0.3413   -8.3882 O   0  0  0  0  0  0  0  0  0  0  0  0
    2.4851   -0.9992   -8.7236 C   0  0  0  0  0  0  0  0  0  0  0  0
    1.5124   -1.0141   -4.0161 C   0  0  0  0  0  0  0  0  0  0  0  0
    2.1095   -0.2521   -4.7521 O   0  0  0  0  0  0  0  0  0  0  0  0
    0.2753   -0.6995   -3.5795 O   0  0  0  0  0  0  0  0  0  0  0  0
   -0.2718    0.5445   -4.0214 C   0  0  0  0  0  0  0  0  0  0  0  0
   -2.6984   -7.1016   -3.7144 H   0  0  0  0  0  0  0  0  0  0  0  0
   -3.3064   -6.3458   -2.2219 H   0  0  0  0  0  0  0  0  0  0  0  0
   -4.2551   -6.2386   -3.7242 H   0  0  0  0  0  0  0  0  0  0  0  0
   -1.3230   -4.9860   -1.8995 H   0  0  0  0  0  0  0  0  0  0  0  0
   -0.7869   -1.7443   -4.6345 H   0  0  0  0  0  0  0  0  0  0  0  0
   -2.5260   -2.7437   -6.0628 H   0  0  0  0  0  0  0  0  0  0  0  0
    0.0630   -1.6217   -2.2625 H   0  0  0  0  0  0  0  0  0  0  0  0
   -0.0051   -3.0763   -1.2388 H   0  0  0  0  0  0  0  0  0  0  0  0
    5.8357   -3.6235   -4.8128 H   0  0  0  0  0  0  0  0  0  0  0  0
    6.7579   -5.7738   -4.0297 H   0  0  0  0  0  0  0  0  0  0  0  0
    4.5532   -7.6026   -0.5916 H   0  0  0  0  0  0  0  0  0  0  0  0
    3.7990   -8.4294   -1.9757 H   0  0  0  0  0  0  0  0  0  0  0  0
    5.7685  -12.5352   -2.2004 H   0  0  0  0  0  0  0  0  0  0  0  0
    7.2780  -12.6155   -0.2264 H   0  0  0  0  0  0  0  0  0  0  0  0
    7.5644  -10.5551    1.1353 H   0  0  0  0  0  0  0  0  0  0  0  0
    2.6405   -1.9105   -6.5907 H   0  0  0  0  0  0  0  0  0  0  0  0
    5.6906   -1.2626   -3.6449 H   0  0  0  0  0  0  0  0  0  0  0  0
    8.5204    0.6076   -3.6354 H   0  0  0  0  0  0  0  0  0  0  0  0
    6.8490    0.3739   -3.0697 H   0  0  0  0  0  0  0  0  0  0  0  0
    7.7674   -1.0028   -3.7250 H   0  0  0  0  0  0  0  0  0  0  0  0
    4.6491    2.3620   -7.7765 H   0  0  0  0  0  0  0  0  0  0  0  0
    5.9169    2.6276   -6.5557 H   0  0  0  0  0  0  0  0  0  0  0  0
    6.2974    2.7998   -8.2859 H   0  0  0  0  0  0  0  0  0  0  0  0
    2.6275   -2.0787   -8.6740 H   0  0  0  0  0  0  0  0  0  0  0  0
    1.7081   -0.7025   -8.0190 H   0  0  0  0  0  0  0  0  0  0  0  0
    2.1864   -0.7181   -9.7334 H   0  0  0  0  0  0  0  0  0  0  0  0
   -0.3358    0.5472   -5.1095 H   0  0  0  0  0  0  0  0  0  0  0  0
   -1.2681    0.6739   -3.5985 H   0  0  0  0  0  0  0  0  0  0  0  0
    0.3711    1.3612   -3.6932 H   0  0  0  0  0  0  0  0  0  0  0  0
  1  2  1  0  0  0  0
  1 44  1  0  0  0  0
  1 45  1  0  0  0  0
  1 46  1  0  0  0  0
  2  7  2  0  0  0  0
  2  3  1  0  0  0  0
  3  4  2  0  0  0  0
  3 47  1  0  0  0  0
  4  5  1  0  0  0  0
  4  8  1  0  0  0  0
  5  6  2  0  0  0  0
  5 48  1  0  0  0  0
  6  7  1  0  0  0  0
  6 49  1  0  0  0  0
  8  9  1  0  0  0  0
  8 50  1  0  0  0  0
  8 51  1  0  0  0  0
  9 18  1  0  0  0  0
  9 10  1  0  0  0  0
 10 11  2  0  0  0  0
 10 40  1  0  0  0  0
 11 12  1  0  0  0  0
 11 28  1  0  0  0  0
 12 17  2  0  0  0  0
 12 13  1  0  0  0  0
 13 14  2  0  0  0  0
 13 52  1  0  0  0  0
 14 15  1  0  0  0  0
 14 53  1  0  0  0  0
 15 16  2  0  0  0  0
 15 20  1  0  0  0  0
 16 17  1  0  0  0  0
 17 18  1  0  0  0  0
 18 19  2  0  0  0  0
 20 21  1  0  0  0  0
 21 22  1  0  0  0  0
 21 54  1  0  0  0  0
 21 55  1  0  0  0  0
 22 27  2  0  0  0  0
 22 23  1  0  0  0  0
 23 24  2  0  0  0  0
 24 25  1  0  0  0  0
 24 56  1  0  0  0  0
 25 26  2  0  0  0  0
 25 57  1  0  0  0  0
 26 27  1  0  0  0  0
 26 58  1  0  0  0  0
 28 33  2  0  0  0  0
 28 29  1  0  0  0  0
 29 30  2  0  0  0  0
 29 59  1  0  0  0  0
 30 31  1  0  0  0  0
 30 38  1  0  0  0  0
 31 32  2  0  0  0  0
 31 36  1  0  0  0  0
 32 33  1  0  0  0  0
 32 34  1  0  0  0  0
 33 60  1  0  0  0  0
 34 35  1  0  0  0  0
 35 61  1  0  0  0  0
 35 62  1  0  0  0  0
 35 63  1  0  0  0  0
 36 37  1  0  0  0  0
 37 64  1  0  0  0  0
 37 65  1  0  0  0  0
 37 66  1  0  0  0  0
 38 39  1  0  0  0  0
 39 67  1  0  0  0  0
 39 68  1  0  0  0  0
 39 69  1  0  0  0  0
 40 41  2  0  0  0  0
 40 42  1  0  0  0  0
 42 43  1  0  0  0  0
 43 70  1  0  0  0  0
 43 71  1  0  0  0  0
 43 72  1  0  0  0  0
M  END
$$$$
CHEMBL542410
  -OEChem-07121202283D

 73 77  0     0  0  0  0  0  0999 V2000
   -3.2484   -6.2536   -3.3065 C   0  0  0  0  0  0  0  0  0  0  0  0
   -2.5369   -4.9742   -3.6645 C   0  0  0  0  0  0  0  0  0  0  0  0
   -1.5699   -4.4697   -2.8154 C   0  0  0  0  0  0  0  0  0  0  0  0
   -0.9214   -3.2922   -3.1540 C   0  0  0  0  0  0  0  0  0  0  0  0
   -1.2713   -2.6633   -4.3394 C   0  0  0  0  0  0  0  0  0  0  0  0
   -2.2478   -3.2273   -5.1380 C   0  0  0  0  0  0  0  0  0  0  0  0
   -2.8402   -4.3520   -4.7867 N   0  3  0  0  0  0  0  0  0  0  0  0
    0.1383   -2.7091   -2.2551 C   0  0  0  0  0  0  0  0  0  0  0  0
    1.4623   -3.1102   -2.7370 N   0  0  0  0  0  0  0  0  0  0  0  0
    2.1373   -2.2752   -3.6031 C   0  0  0  0  0  0  0  0  0  0  0  0
    3.3893   -2.6006   -4.0910 C   0  0  0  0  0  0  0  0  0  0  0  0
    4.0113   -3.8645   -3.6749 C   0  0  0  0  0  0  0  0  0  0  0  0
    5.2766   -4.2499   -4.1335 C   0  0  0  0  0  0  0  0  0  0  0  0
    5.7849   -5.4438   -3.6967 C   0  0  0  0  0  0  0  0  0  0  0  0
    5.0388   -6.2330   -2.8187 C   0  0  0  0  0  0  0  0  0  0  0  0
    3.8473   -5.8548   -2.3960 N   0  0  0  0  0  0  0  0  0  0  0  0
    3.3098   -4.7068   -2.7894 C   0  0  0  0  0  0  0  0  0  0  0  0
    1.9812   -4.2782   -2.3155 C   0  0  0  0  0  0  0  0  0  0  0  0
    1.3525   -4.9819   -1.5467 O   0  0  0  0  0  0  0  0  0  0  0  0
    5.5496   -7.4140   -2.3916 O   0  0  0  0  0  0  0  0  0  0  0  0
    4.7453   -8.1822   -1.4945 C   0  0  0  0  0  0  0  0  0  0  0  0
    5.4709   -9.4521   -1.1313 C   0  0  0  0  0  0  0  0  0  0  0  0
    5.2960  -10.5260   -1.8751 N   0  0  0  0  0  0  0  0  0  0  0  0
    5.9164  -11.6588   -1.5869 C   0  0  0  0  0  0  0  0  0  0  0  0
    6.7583  -11.7053   -0.4869 C   0  0  0  0  0  0  0  0  0  0  0  0
    6.9167  -10.5559    0.2711 C   0  0  0  0  0  0  0  0  0  0  0  0
    6.2675   -9.4579   -0.0814 N   0  0  0  0  0  0  0  0  0  0  0  0
    4.0918   -1.6896   -5.0187 C   0  0  0  0  0  0  0  0  0  0  0  0
    3.5632   -1.4387   -6.2867 C   0  0  0  0  0  0  0  0  0  0  0  0
    4.2225   -0.5858   -7.1531 C   0  0  0  0  0  0  0  0  0  0  0  0
    5.4120    0.0222   -6.7621 C   0  0  0  0  0  0  0  0  0  0  0  0
    5.9408   -0.2263   -5.4989 C   0  0  0  0  0  0  0  0  0  0  0  0
    5.2823   -1.0739   -4.6267 C   0  0  0  0  0  0  0  0  0  0  0  0
    7.1035    0.3690   -5.1200 O   0  0  0  0  0  0  0  0  0  0  0  0
    7.5888    0.0691   -3.8098 C   0  0  0  0  0  0  0  0  0  0  0  0
    6.0586    0.8601   -7.6160 O   0  0  0  0  0  0  0  0  0  0  0  0
    5.7098    2.2445   -7.5549 C   0  0  0  0  0  0  0  0  0  0  0  0
    3.7085   -0.3413   -8.3882 O   0  0  0  0  0  0  0  0  0  0  0  0
    2.4851   -0.9992   -8.7236 C   0  0  0  0  0  0  0  0  0  0  0  0
    1.5124   -1.0141   -4.0161 C   0  0  0  0  0  0  0  0  0  0  0  0
    2.1095   -0.2521   -4.7521 O   0  0  0  0  0  0  0  0  0  0  0  0
    0.2753   -0.6995   -3.5795 O   0  0  0  0  0  0  0  0  0  0  0  0
   -0.2718    0.5445   -4.0214 C   0  0  0  0  0  0  0  0  0  0  0  0
   -2.6984   -7.1016   -3.7144 H   0  0  0  0  0  0  0  0  0  0  0  0
   -3.3064   -6.3458   -2.2219 H   0  0  0  0  0  0  0  0  0  0  0  0
   -4.2551   -6.2386   -3.7242 H   0  0  0  0  0  0  0  0  0  0  0  0
   -1.3230   -4.9860   -1.8995 H   0  0  0  0  0  0  0  0  0  0  0  0
   -0.7869   -1.7443   -4.6345 H   0  0  0  0  0  0  0  0  0  0  0  0
   -2.5260   -2.7437   -6.0628 H   0  0  0  0  0  0  0  0  0  0  0  0
    0.0630   -1.6217   -2.2625 H   0  0  0  0  0  0  0  0  0  0  0  0
   -0.0051   -3.0763   -1.2388 H   0  0  0  0  0  0  0  0  0  0  0  0
    5.8357   -3.6235   -4.8128 H   0  0  0  0  0  0  0  0  0  0  0  0
    6.7579   -5.7738   -4.0297 H   0  0  0  0  0  0  0  0  0  0  0  0
    4.5532   -7.6026   -0.5916 H   0  0  0  0  0  0  0  0  0  0  0  0
    3.7990   -8.4294   -1.9757 H   0  0  0  0  0  0  0  0  0  0  0  0
    5.7685  -12.5352   -2.2004 H   0  0  0  0  0  0  0  0  0  0  0  0
    7.2780  -12.6155   -0.2264 H   0  0  0  0  0  0  0  0  0  0  0  0
    7.5644  -10.5551    1.1353 H   0  0  0  0  0  0  0  0  0  0  0  0
    2.6405   -1.9105   -6.5907 H   0  0  0  0  0  0  0  0  0  0  0  0
    5.6906   -1.2626   -3.6449 H   0  0  0  0  0  0  0  0  0  0  0  0
    8.5204    0.6076   -3.6354 H   0  0  0  0  0  0  0  0  0  0  0  0
    6.8490    0.3739   -3.0697 H   0  0  0  0  0  0  0  0  0  0  0  0
    7.7674   -1.0028   -3.7250 H   0  0  0  0  0  0  0  0  0  0  0  0
    4.6491    2.3620   -7.7765 H   0  0  0  0  0  0  0  0  0  0  0  0
    5.9169    2.6276   -6.5557 H   0  0  0  0  0  0  0  0  0  0  0  0
    6.2974    2.7998   -8.2859 H   0  0  0  0  0  0  0  0  0  0  0  0
    2.6275   -2.0787   -8.6740 H   0  0  0  0  0  0  0  0  0  0  0  0
    1.7081   -0.7025   -8.0190 H   0  0  0  0  0  0  0  0  0  0  0  0
    2.1864   -0.7181   -9.7334 H   0  0  0  0  0  0  0  0  0  0  0  0
    0.3711    1.3612   -3.6932 H   0  0  0  0  0  0  0  0  0  0  0  0
   -0.3358    0.5472   -5.1095 H   0  0  0  0  0  0  0  0  0  0  0  0
   -1.2681    0.6739   -3.5985 H   0  0  0  0  0  0  0  0  0  0  0  0
   -3.5198   -4.7292   -5.3671 H   0  0  0  0  0  0  0  0  0  0  0  0
  1  2  1  0  0  0  0
  1 44  1  0  0  0  0
  1 45  1  0  0  0  0
  1 46  1  0  0  0  0
  2  7  2  0  0  0  0
  2  3  1  0  0  0  0
  3  4  2  0  0  0  0
  3 47  1  0  0  0  0
  4  5  1  0  0  0  0
  4  8  1  0  0  0  0
  5  6  2  0  0  0  0
  5 48  1  0  0  0  0
  6  7  1  0  0  0  0
  6 49  1  0  0  0  0
  7 73  1  0  0  0  0
  8  9  1  0  0  0  0
  8 50  1  0  0  0  0
  8 51  1  0  0  0  0
  9 18  1  0  0  0  0
  9 10  1  0  0  0  0
 10 11  2  0  0  0  0
 10 40  1  0  0  0  0
 11 12  1  0  0  0  0
 11 28  1  0  0  0  0
 12 17  2  0  0  0  0
 12 13  1  0  0  0  0
 13 14  2  0  0  0  0
 13 52  1  0  0  0  0
 14 15  1  0  0  0  0
 14 53  1  0  0  0  0
 15 16  2  0  0  0  0
 15 20  1  0  0  0  0
 16 17  1  0  0  0  0
 17 18  1  0  0  0  0
 18 19  2  0  0  0  0
 20 21  1  0  0  0  0
 21 22  1  0  0  0  0
 21 54  1  0  0  0  0
 21 55  1  0  0  0  0
 22 27  2  0  0  0  0
 22 23  1  0  0  0  0
 23 24  2  0  0  0  0
 24 25  1  0  0  0  0
 24 56  1  0  0  0  0
 25 26  2  0  0  0  0
 25 57  1  0  0  0  0
 26 27  1  0  0  0  0
 26 58  1  0  0  0  0
 28 33  2  0  0  0  0
 28 29  1  0  0  0  0
 29 30  2  0  0  0  0
 29 59  1  0  0  0  0
 30 31  1  0  0  0  0
 30 38  1  0  0  0  0
 31 32  2  0  0  0  0
 31 36  1  0  0  0  0
 32 33  1  0  0  0  0
 32 34  1  0  0  0  0
 33 60  1  0  0  0  0
 34 35  1  0  0  0  0
 35 61  1  0  0  0  0
 35 62  1  0  0  0  0
 35 63  1  0  0  0  0
 36 37  1  0  0  0  0
 37 64  1  0  0  0  0
 37 65  1  0  0  0  0
 37 66  1  0  0  0  0
 38 39  1  0  0  0  0
 39 67  1  0  0  0  0
 39 68  1  0  0  0  0
 39 69  1  0  0  0  0
 40 41  2  0  0  0  0
 40 42  1  0  0  0  0
 42 43  1  0  0  0  0
 43 70  1  0  0  0  0
 43 71  1  0  0  0  0
 43 72  1  0  0  0  0
M  CHG  1   7   1
M  END
$$$$
CHEMBL497293
  -OEChem-07121202283D

 67 70  0     1  0  0  0  0  0999 V2000
    2.2548   -4.8584   -2.1730 C   0  0  0  0  0  0  0  0  0  0  0  0
    2.4056   -5.2319   -0.6970 C   0  0  2  0  0  0  0  0  0  0  0  0
    3.3227   -5.8046   -0.5589 H   0  0  0  0  0  0  0  0  0  0  0  0
    1.2058   -6.0756   -0.2587 C   0  0  2  0  0  0  0  0  0  0  0  0
    0.2853   -5.5189   -0.4345 H   0  0  0  0  0  0  0  0  0  0  0  0
    1.3339   -6.3947    1.2340 C   0  0  1  0  0  0  0  0  0  0  0  0
    2.2286   -6.9938    1.4033 H   0  0  0  0  0  0  0  0  0  0  0  0
    1.4396   -5.0830    2.0180 C   0  0  1  0  0  0  0  0  0  0  0  0
    1.5866   -5.3016    3.0757 H   0  0  0  0  0  0  0  0  0  0  0  0
    2.6304   -4.2776    1.4917 C   0  0  1  0  0  0  0  0  0  0  0  0
    3.5504   -4.8378    1.6587 H   0  0  0  0  0  0  0  0  0  0  0  0
    2.4635   -4.0419    0.0922 O   0  0  0  0  0  0  0  0  0  0  0  0
    2.7020   -3.0275    2.1804 O   0  0  0  0  0  0  0  0  0  0  0  0
    3.8235   -2.2804    1.9899 C   0  0  0  0  0  0  0  0  0  0  0  0
    5.0806   -2.7458    2.4552 C   0  0  0  0  0  0  0  0  0  0  0  0
    5.1866   -3.8163    3.0320 O   0  0  0  0  0  0  0  0  0  0  0  0
    6.2516   -1.8876    2.2148 C   0  0  0  0  0  0  0  0  0  0  0  0
    7.5313   -2.2688    2.6397 C   0  0  0  0  0  0  0  0  0  0  0  0
    8.6063   -1.4353    2.3947 C   0  0  0  0  0  0  0  0  0  0  0  0
    8.4171   -0.2272    1.7316 C   0  0  0  0  0  0  0  0  0  0  0  0
    7.1543    0.1566    1.3089 C   0  0  0  0  0  0  0  0  0  0  0  0
    6.0632   -0.6664    1.5445 C   0  0  0  0  0  0  0  0  0  0  0  0
    4.8276   -0.3072    1.1379 O   0  0  0  0  0  0  0  0  0  0  0  0
    3.7492   -1.0821    1.3456 C   0  0  0  0  0  0  0  0  0  0  0  0
    2.4362   -0.6155    0.8633 C   0  0  0  0  0  0  0  0  0  0  0  0
    1.3288   -0.6348    1.7161 C   0  0  0  0  0  0  0  0  0  0  0  0
    0.1043   -0.1976    1.2614 C   0  0  0  0  0  0  0  0  0  0  0  0
   -0.0312    0.2619   -0.0429 C   0  0  0  0  0  0  0  0  0  0  0  0
    1.0668    0.2829   -0.8942 C   0  0  0  0  0  0  0  0  0  0  0  0
    2.2965   -0.1470   -0.4463 C   0  0  0  0  0  0  0  0  0  0  0  0
   -1.2405    0.6912   -0.4872 O   0  0  0  0  0  0  0  0  0  0  0  0
   -1.3094    1.1504   -1.8387 C   0  0  0  0  0  0  0  0  0  0  0  0
    6.9667    1.4690    0.5924 C   0  0  0  0  0  0  0  0  0  0  0  0
    7.0105    1.2392   -0.8964 C   0  0  0  0  0  0  0  0  0  0  0  0
    7.8383    1.9289   -1.6415 C   0  0  0  0  0  0  0  0  0  0  0  0
    8.6696    3.0257   -1.0275 C   0  0  0  0  0  0  0  0  0  0  0  0
    7.9591    1.6256   -3.1127 C   0  0  0  0  0  0  0  0  0  0  0  0
    9.4799    0.5841    1.4966 O   0  0  0  0  0  0  0  0  0  0  0  0
    7.7137   -3.4475    3.2872 O   0  0  0  0  0  0  0  0  0  0  0  0
    0.2385   -4.3275    1.8490 O   0  0  0  0  0  0  0  0  0  0  0  0
    0.1826   -7.1215    1.6680 O   0  0  0  0  0  0  0  0  0  0  0  0
    1.1784   -7.2923   -1.0077 O   0  0  0  0  0  0  0  0  0  0  0  0
    3.1089   -4.2573   -2.4849 H   0  0  0  0  0  0  0  0  0  0  0  0
    2.2102   -5.7661   -2.7748 H   0  0  0  0  0  0  0  0  0  0  0  0
    1.3377   -4.2856   -2.3110 H   0  0  0  0  0  0  0  0  0  0  0  0
    9.5956   -1.7225    2.7192 H   0  0  0  0  0  0  0  0  0  0  0  0
    1.4330   -0.9924    2.7299 H   0  0  0  0  0  0  0  0  0  0  0  0
   -0.7519   -0.2122    1.9196 H   0  0  0  0  0  0  0  0  0  0  0  0
    0.9569    0.6408   -1.9072 H   0  0  0  0  0  0  0  0  0  0  0  0
    3.1504   -0.1261   -1.1072 H   0  0  0  0  0  0  0  0  0  0  0  0
   -0.6324    1.9944   -1.9706 H   0  0  0  0  0  0  0  0  0  0  0  0
   -1.0196    0.3436   -2.5118 H   0  0  0  0  0  0  0  0  0  0  0  0
   -2.3288    1.4635   -2.0645 H   0  0  0  0  0  0  0  0  0  0  0  0
    6.0025    1.8976    0.8656 H   0  0  0  0  0  0  0  0  0  0  0  0
    7.7636    2.1558    0.8776 H   0  0  0  0  0  0  0  0  0  0  0  0
    6.3595    0.5059   -1.3490 H   0  0  0  0  0  0  0  0  0  0  0  0
    9.5783    2.5986   -0.6031 H   0  0  0  0  0  0  0  0  0  0  0  0
    8.9341    3.7537   -1.7944 H   0  0  0  0  0  0  0  0  0  0  0  0
    8.0978    3.5180   -0.2409 H   0  0  0  0  0  0  0  0  0  0  0  0
    7.2425    2.2303   -3.6684 H   0  0  0  0  0  0  0  0  0  0  0  0
    8.9693    1.8580   -3.4498 H   0  0  0  0  0  0  0  0  0  0  0  0
    7.7530    0.5690   -3.2840 H   0  0  0  0  0  0  0  0  0  0  0  0
    9.9246    0.4158    0.6546 H   0  0  0  0  0  0  0  0  0  0  0  0
    7.9031   -4.1930    2.7012 H   0  0  0  0  0  0  0  0  0  0  0  0
    0.2359   -3.4825    2.3192 H   0  0  0  0  0  0  0  0  0  0  0  0
    0.1968   -7.3573    2.6057 H   0  0  0  0  0  0  0  0  0  0  0  0
    1.1029   -7.1644   -1.9632 H   0  0  0  0  0  0  0  0  0  0  0  0
  1  2  1  0  0  0  0
  1 43  1  0  0  0  0
  1 44  1  0  0  0  0
  1 45  1  0  0  0  0
  2  3  1  0  0  0  0
  2 12  1  0  0  0  0
  2  4  1  0  0  0  0
  4  5  1  0  0  0  0
  4  6  1  0  0  0  0
  4 42  1  0  0  0  0
  6  7  1  0  0  0  0
  6  8  1  0  0  0  0
  6 41  1  0  0  0  0
  8  9  1  0  0  0  0
  8 10  1  0  0  0  0
  8 40  1  0  0  0  0
 10 11  1  0  0  0  0
 10 12  1  0  0  0  0
 10 13  1  0  0  0  0
 13 14  1  0  0  0  0
 14 24  2  0  0  0  0
 14 15  1  0  0  0  0
 15 16  2  0  0  0  0
 15 17  1  0  0  0  0
 17 22  2  0  0  0  0
 17 18  1  0  0  0  0
 18 19  2  0  0  0  0
 18 39  1  0  0  0  0
 19 20  1  0  0  0  0
 19 46  1  0  0  0  0
 20 21  2  0  0  0  0
 20 38  1  0  0  0  0
 21 22  1  0  0  0  0
 21 33  1  0  0  0  0
 22 23  1  0  0  0  0
 23 24  1  0  0  0  0
 24 25  1  0  0  0  0
 25 30  2  0  0  0  0
 25 26  1  0  0  0  0
 26 27  2  0  0  0  0
 26 47  1  0  0  0  0
 27 28  1  0  0  0  0
 27 48  1  0  0  0  0
 28 29  2  0  0  0  0
 28 31  1  0  0  0  0
 29 30  1  0  0  0  0
 29 49  1  0  0  0  0
 30 50  1  0  0  0  0
 31 32  1  0  0  0  0
 32 51  1  0  0  0  0
 32 52  1  0  0  0  0
 32 53  1  0  0  0  0
 33 34  1  0  0  0  0
 33 54  1  0  0  0  0
 33 55  1  0  0  0  0
 34 35  2  0  0  0  0
 34 56  1  0  0  0  0
 35 36  1  0  0  0  0
 35 37  1  0  0  0  0
 36 57  1  0  0  0  0
 36 58  1  0  0  0  0
 36 59  1  0  0  0  0
 37 60  1  0  0  0  0
 37 61  1  0  0  0  0
 37 62  1  0  0  0  0
 38 63  1  0  0  0  0
 39 64  1  0  0  0  0
 40 65  1  0  0  0  0
 41 66  1  0  0  0  0
 42 67  1  0  0  0  0
M  END
$$$$
CHEMBL141631
  -OEChem-07121202283D

 59 64  0     1  0  0  0  0  0999 V2000
    0.3080    1.3747   -0.2149 C   0  0  0  0  0  0  0  0  0  0  0  0
    0.0020   -0.0042    0.0020 O   0  0  0  0  0  0  0  0  0  0  0  0
    0.6258   -0.6185    1.0414 C   0  0  0  0  0  0  0  0  0  0  0  0
    1.5097    0.0928    1.8398 C   0  0  0  0  0  0  0  0  0  0  0  0
    2.1421   -0.5338    2.8962 C   0  0  0  0  0  0  0  0  0  0  0  0
    1.8951   -1.8688    3.1577 C   0  0  0  0  0  0  0  0  0  0  0  0
    1.0149   -2.5801    2.3632 C   0  0  0  0  0  0  0  0  0  0  0  0
    0.3753   -1.9564    1.3094 C   0  0  0  0  0  0  0  0  0  0  0  0
    2.5867   -2.5500    4.3104 C   0  0  1  0  0  0  0  0  0  0  0  0
    3.3304   -1.8834    4.7469 H   0  0  0  0  0  0  0  0  0  0  0  0
    1.5713   -2.9561    5.3603 C   0  0  0  0  0  0  0  0  0  0  0  0
    1.2501   -4.2382    5.6336 C   0  0  0  0  0  0  0  0  0  0  0  0
    0.2465   -4.2032    6.6815 C   0  0  0  0  0  0  0  0  0  0  0  0
   -0.4514   -5.2100    7.3554 C   0  0  0  0  0  0  0  0  0  0  0  0
   -1.3484   -4.8072    8.3140 C   0  0  0  0  0  0  0  0  0  0  0  0
   -1.5602   -3.4702    8.6083 C   0  0  0  0  0  0  0  0  0  0  0  0
   -0.8840   -2.4539    7.9561 C   0  0  0  0  0  0  0  0  0  0  0  0
    0.0330   -2.8331    6.9777 C   0  0  0  0  0  0  0  0  0  0  0  0
    0.8520   -2.1090    6.1604 N   0  0  0  0  0  0  0  0  0  0  0  0
    0.9150   -1.1412    6.1483 H   0  0  0  0  0  0  0  0  0  0  0  0
    1.8426   -5.4572    4.9722 C   0  0  0  0  0  0  0  0  0  0  0  0
    2.4830   -5.0524    3.6392 C   0  0  1  0  0  0  0  0  0  0  0  0
    1.7377   -4.9533    2.8500 H   0  0  0  0  0  0  0  0  0  0  0  0
    3.2272   -3.7892    3.8528 N   0  0  0  0  0  0  0  0  0  0  0  0
    4.5090   -4.0275    3.5690 C   0  0  0  0  0  0  0  0  0  0  0  0
    5.3777   -3.1777    3.5898 O   0  0  0  0  0  0  0  0  0  0  0  0
    4.7275   -5.3134    3.2587 N   0  0  0  0  0  0  0  0  0  0  0  0
    3.5621   -6.0496    3.2691 C   0  0  0  0  0  0  0  0  0  0  0  0
    3.4178   -7.2314    3.0405 O   0  0  0  0  0  0  0  0  0  0  0  0
    6.0438   -5.8697    2.9360 C   0  0  0  0  0  0  0  0  0  0  0  0
    6.9859   -5.6734    4.1255 C   0  0  0  0  0  0  0  0  0  0  0  0
    8.3606   -6.2544    3.7885 C   0  0  0  0  0  0  0  0  0  0  0  0
    8.9306   -5.5376    2.5628 C   0  0  0  0  0  0  0  0  0  0  0  0
    7.9885   -5.7339    1.3734 C   0  0  0  0  0  0  0  0  0  0  0  0
    6.6138   -5.1529    1.7103 C   0  0  0  0  0  0  0  0  0  0  0  0
    1.3752    1.4841   -0.4077 H   0  0  0  0  0  0  0  0  0  0  0  0
   -0.2557    1.7414   -1.0728 H   0  0  0  0  0  0  0  0  0  0  0  0
    0.0378    1.9504    0.6704 H   0  0  0  0  0  0  0  0  0  0  0  0
    1.7034    1.1354    1.6355 H   0  0  0  0  0  0  0  0  0  0  0  0
    2.8302    0.0195    3.5180 H   0  0  0  0  0  0  0  0  0  0  0  0
    0.8240   -3.6229    2.5693 H   0  0  0  0  0  0  0  0  0  0  0  0
   -0.3155   -2.5112    0.6918 H   0  0  0  0  0  0  0  0  0  0  0  0
   -0.2923   -6.2547    7.1329 H   0  0  0  0  0  0  0  0  0  0  0  0
   -1.9062   -5.5567    8.8558 H   0  0  0  0  0  0  0  0  0  0  0  0
   -2.2780   -3.2121    9.3729 H   0  0  0  0  0  0  0  0  0  0  0  0
   -1.0589   -1.4151    8.1943 H   0  0  0  0  0  0  0  0  0  0  0  0
    2.6015   -5.8913    5.6232 H   0  0  0  0  0  0  0  0  0  0  0  0
    1.0568   -6.1903    4.7903 H   0  0  0  0  0  0  0  0  0  0  0  0
    5.9459   -6.9339    2.7218 H   0  0  0  0  0  0  0  0  0  0  0  0
    7.0838   -4.6092    4.3398 H   0  0  0  0  0  0  0  0  0  0  0  0
    6.5798   -6.1840    4.9987 H   0  0  0  0  0  0  0  0  0  0  0  0
    9.0318   -6.1146    4.6359 H   0  0  0  0  0  0  0  0  0  0  0  0
    8.2628   -7.3186    3.5742 H   0  0  0  0  0  0  0  0  0  0  0  0
    9.0285   -4.4734    2.7771 H   0  0  0  0  0  0  0  0  0  0  0  0
    9.9100   -5.9515    2.3227 H   0  0  0  0  0  0  0  0  0  0  0  0
    8.3946   -5.2233    0.5001 H   0  0  0  0  0  0  0  0  0  0  0  0
    7.8907   -6.7981    1.1591 H   0  0  0  0  0  0  0  0  0  0  0  0
    5.9426   -5.2927    0.8629 H   0  0  0  0  0  0  0  0  0  0  0  0
    6.7117   -4.0887    1.9246 H   0  0  0  0  0  0  0  0  0  0  0  0
  1  2  1  0  0  0  0
  1 36  1  0  0  0  0
  1 37  1  0  0  0  0
  1 38  1  0  0  0  0
  2  3  1  0  0  0  0
  3  8  2  0  0  0  0
  3  4  1  0  0  0  0
  4  5  2  0  0  0  0
  4 39  1  0  0  0  0
  5  6  1  0  0  0  0
  5 40  1  0  0  0  0
  6  7  2  0  0  0  0
  6  9  1  0  0  0  0
  7  8  1  0  0  0  0
  7 41  1  0  0  0  0
  8 42  1  0  0  0  0
  9 10  1  0  0  0  0
  9 24  1  0  0  0  0
  9 11  1  0  0  0  0
 11 19  1  0  0  0  0
 11 12  2  0  0  0  0
 12 13  1  0  0  0  0
 12 21  1  0  0  0  0
 13 18  2  0  0  0  0
 13 14  1  0  0  0  0
 14 15  2  0  0  0  0
 14 43  1  0  0  0  0
 15 16  1  0  0  0  0
 15 44  1  0  0  0  0
 16 17  2  0  0  0  0
 16 45  1  0  0  0  0
 17 18  1  0  0  0  0
 17 46  1  0  0  0  0
 18 19  1  0  0  0  0
 19 20  1  0  0  0  0
 21 22  1  0  0  0  0
 21 47  1  0  0  0  0
 21 48  1  0  0  0  0
 22 23  1  0  0  0  0
 22 28  1  0  0  0  0
 22 24  1  0  0  0  0
 24 25  1  0  0  0  0
 25 26  2  0  0  0  0
 25 27  1  0  0  0  0
 27 28  1  0  0  0  0
 27 30  1  0  0  0  0
 28 29  2  0  0  0  0
 30 35  1  0  0  0  0
 30 31  1  0  0  0  0
 30 49  1  0  0  0  0
 31 32  1  0  0  0  0
 31 50  1  0  0  0  0
 31 51  1  0  0  0  0
 32 33  1  0  0  0  0
 32 52  1  0  0  0  0
 32 53  1  0  0  0  0
 33 34  1  0  0  0  0
 33 54  1  0  0  0  0
 33 55  1  0  0  0  0
 34 35  1  0  0  0  0
 34 56  1  0  0  0  0
 34 57  1  0  0  0  0
 35 58  1  0  0  0  0
 35 59  1  0  0  0  0
M  END
$$$$
CHEMBL1094544
  -OEChem-07121202283D

 59 62  0     0  0  0  0  0  0999 V2000
    0.7732   -0.4415   -0.6257 C   0  0  0  0  0  0  0  0  0  0  0  0
    0.1708   -1.8210   -0.8993 C   0  0  0  0  0  0  0  0  0  0  0  0
   -1.3060   -1.7925   -0.6003 C   0  0  0  0  0  0  0  0  0  0  0  0
   -1.8974   -2.0799    0.6483 C   0  0  0  0  0  0  0  0  0  0  0  0
   -3.2861   -1.9356    0.4853 C   0  0  0  0  0  0  0  0  0  0  0  0
   -4.1173   -2.1680    1.5905 C   0  0  0  0  0  0  0  0  0  0  0  0
   -3.5597   -2.5144    2.7446 N   0  0  0  0  0  0  0  0  0  0  0  0
   -2.2429   -2.6413    2.8613 C   0  0  0  0  0  0  0  0  0  0  0  0
   -1.4209   -2.4331    1.8500 N   0  0  0  0  0  0  0  0  0  0  0  0
   -1.7128   -3.0052    4.0892 N   0  0  0  0  0  0  0  0  0  0  0  0
   -0.2579   -3.0483    4.3022 C   0  0  0  0  0  0  0  0  0  0  0  0
    0.0706   -2.2575    5.5728 C   0  0  0  0  0  0  0  0  0  0  0  0
   -0.7216   -2.7814    6.6927 N   0  3  0  0  0  0  0  0  0  0  0  0
   -2.1507   -2.5536    6.4440 C   0  0  0  0  0  0  0  0  0  0  0  0
   -2.5893   -3.3536    5.2181 C   0  0  0  0  0  0  0  0  0  0  0  0
   -5.4916   -2.0383    1.4805 N   0  0  0  0  0  0  0  0  0  0  0  0
   -6.3193   -2.4624    2.5239 C   0  0  0  0  0  0  0  0  0  0  0  0
   -5.9058   -2.3198    3.8424 C   0  0  0  0  0  0  0  0  0  0  0  0
   -6.7260   -2.7399    4.8709 C   0  0  0  0  0  0  0  0  0  0  0  0
   -7.9576   -3.3024    4.5895 C   0  0  0  0  0  0  0  0  0  0  0  0
   -8.3721   -3.4462    3.2781 C   0  0  0  0  0  0  0  0  0  0  0  0
   -7.5596   -3.0221    2.2450 C   0  0  0  0  0  0  0  0  0  0  0  0
   -3.4956   -1.5749   -0.8199 N   0  0  0  0  0  0  0  0  0  0  0  0
   -2.2474   -1.4929   -1.4510 N   0  0  0  0  0  0  0  0  0  0  0  0
   -4.7953   -1.3150   -1.4439 C   0  0  0  0  0  0  0  0  0  0  0  0
   -5.2293    0.1203   -1.1397 C   0  0  0  0  0  0  0  0  0  0  0  0
   -6.4971    0.3738   -1.7484 O   0  0  0  0  0  0  0  0  0  0  0  0
   -6.9960    1.6939   -1.5240 C   0  0  0  0  0  0  0  0  0  0  0  0
   -8.3507    1.8518   -2.2174 C   0  0  0  0  0  0  0  0  0  0  0  0
    1.8414   -0.4621   -0.8419 H   0  0  0  0  0  0  0  0  0  0  0  0
    0.2881    0.2994   -1.2611 H   0  0  0  0  0  0  0  0  0  0  0  0
    0.6195   -0.1790    0.4210 H   0  0  0  0  0  0  0  0  0  0  0  0
    0.3246   -2.0835   -1.9460 H   0  0  0  0  0  0  0  0  0  0  0  0
    0.6559   -2.5619   -0.2639 H   0  0  0  0  0  0  0  0  0  0  0  0
    0.0645   -4.0827    4.4209 H   0  0  0  0  0  0  0  0  0  0  0  0
    0.2506   -2.5987    3.4493 H   0  0  0  0  0  0  0  0  0  0  0  0
    1.1319   -2.3587    5.7997 H   0  0  0  0  0  0  0  0  0  0  0  0
   -0.1695   -1.2056    5.4185 H   0  0  0  0  0  0  0  0  0  0  0  0
   -0.5519   -3.7713    6.7891 H   0  0  0  0  0  0  0  0  0  0  0  0
   -2.7263   -2.8730    7.3128 H   0  0  0  0  0  0  0  0  0  0  0  0
   -2.3236   -1.4927    6.2633 H   0  0  0  0  0  0  0  0  0  0  0  0
   -3.6215   -3.1058    4.9705 H   0  0  0  0  0  0  0  0  0  0  0  0
   -2.5064   -4.4194    5.4309 H   0  0  0  0  0  0  0  0  0  0  0  0
   -5.8798   -1.6531    0.6794 H   0  0  0  0  0  0  0  0  0  0  0  0
   -4.9437   -1.8813    4.0628 H   0  0  0  0  0  0  0  0  0  0  0  0
   -6.4051   -2.6294    5.8962 H   0  0  0  0  0  0  0  0  0  0  0  0
   -8.5970   -3.6304    5.3957 H   0  0  0  0  0  0  0  0  0  0  0  0
   -9.3344   -3.8862    3.0617 H   0  0  0  0  0  0  0  0  0  0  0  0
   -7.8860   -3.1303    1.2212 H   0  0  0  0  0  0  0  0  0  0  0  0
   -4.7138   -1.4490   -2.5226 H   0  0  0  0  0  0  0  0  0  0  0  0
   -5.5348   -2.0102   -1.0463 H   0  0  0  0  0  0  0  0  0  0  0  0
   -5.3109    0.2543   -0.0610 H   0  0  0  0  0  0  0  0  0  0  0  0
   -4.4899    0.8154   -1.5373 H   0  0  0  0  0  0  0  0  0  0  0  0
   -7.1142    1.8606   -0.4533 H   0  0  0  0  0  0  0  0  0  0  0  0
   -6.2932    2.4217   -1.9296 H   0  0  0  0  0  0  0  0  0  0  0  0
   -8.2324    1.6852   -3.2881 H   0  0  0  0  0  0  0  0  0  0  0  0
   -9.0535    1.1240   -1.8118 H   0  0  0  0  0  0  0  0  0  0  0  0
   -8.7312    2.8588   -2.0463 H   0  0  0  0  0  0  0  0  0  0  0  0
   -0.4505   -2.3117    7.5436 H   0  0  0  0  0  0  0  0  0  0  0  0
  1  2  1  0  0  0  0
  1 30  1  0  0  0  0
  1 31  1  0  0  0  0
  1 32  1  0  0  0  0
  2  3  1  0  0  0  0
  2 33  1  0  0  0  0
  2 34  1  0  0  0  0
  3 24  2  0  0  0  0
  3  4  1  0  0  0  0
  4  9  2  0  0  0  0
  4  5  1  0  0  0  0
  5  6  2  0  0  0  0
  5 23  1  0  0  0  0
  6  7  1  0  0  0  0
  6 16  1  0  0  0  0
  7  8  2  0  0  0  0
  8  9  1  0  0  0  0
  8 10  1  0  0  0  0
 10 15  1  0  0  0  0
 10 11  1  0  0  0  0
 11 12  1  0  0  0  0
 11 35  1  0  0  0  0
 11 36  1  0  0  0  0
 12 13  1  0  0  0  0
 12 37  1  0  0  0  0
 12 38  1  0  0  0  0
 13 14  1  0  0  0  0
 13 39  1  0  0  0  0
 13 59  1  0  0  0  0
 14 15  1  0  0  0  0
 14 40  1  0  0  0  0
 14 41  1  0  0  0  0
 15 42  1  0  0  0  0
 15 43  1  0  0  0  0
 16 17  1  0  0  0  0
 16 44  1  0  0  0  0
 17 22  2  0  0  0  0
 17 18  1  0  0  0  0
 18 19  2  0  0  0  0
 18 45  1  0  0  0  0
 19 20  1  0  0  0  0
 19 46  1  0  0  0  0
 20 21  2  0  0  0  0
 20 47  1  0  0  0  0
 21 22  1  0  0  0  0
 21 48  1  0  0  0  0
 22 49  1  0  0  0  0
 23 24  1  0  0  0  0
 23 25  1  0  0  0  0
 25 26  1  0  0  0  0
 25 50  1  0  0  0  0
 25 51  1  0  0  0  0
 26 27  1  0  0  0  0
 26 52  1  0  0  0  0
 26 53  1  0  0  0  0
 27 28  1  0  0  0  0
 28 29  1  0  0  0  0
 28 54  1  0  0  0  0
 28 55  1  0  0  0  0
 29 56  1  0  0  0  0
 29 57  1  0  0  0  0
 29 58  1  0  0  0  0
M  CHG  1  13   1
M  END
$$$$
CHEMBL32255
  -OEChem-07121202283D

 71 78  0     1  0  0  0  0  0999 V2000
   -0.1163    0.9572   -0.2626 C   0  0  0  0  0  0  0  0  0  0  0  0
    1.0484    1.7016   -0.2674 C   0  0  0  0  0  0  0  0  0  0  0  0
    2.2755    1.0653   -0.2499 C   0  0  0  0  0  0  0  0  0  0  0  0
    2.3377   -0.3155   -0.2271 C   0  0  0  0  0  0  0  0  0  0  0  0
    1.1730   -1.0599   -0.2214 C   0  0  0  0  0  0  0  0  0  0  0  0
   -0.0541   -0.4236   -0.2404 C   0  0  0  0  0  0  0  0  0  0  0  0
    3.6754   -1.0092   -0.2090 C   0  0  0  0  0  0  0  0  0  0  0  0
    4.1030   -1.2122    1.1817 N   0  3  2  0  0  0  0  0  0  0  0  0
    4.3556    0.0969    1.8206 C   0  0  0  0  0  0  0  0  0  0  0  0
    5.5648   -0.1469    2.7576 C   0  0  0  0  0  0  0  0  0  0  0  0
    6.4170   -1.1353    1.9187 C   0  0  2  0  0  0  0  0  0  0  0  0
    7.0263   -0.5980    1.1919 H   0  0  0  0  0  0  0  0  0  0  0  0
    5.3516   -1.9959    1.2075 C   0  0  0  0  0  0  0  0  0  0  0  0
    7.2588   -1.9607    2.7883 N   0  0  0  0  0  0  0  0  0  0  0  0
    6.6060   -2.7823    3.7940 C   0  0  0  0  0  0  0  0  0  0  0  0
    7.5812   -3.6215    4.5535 C   0  0  0  0  0  0  0  0  0  0  0  0
    7.1437   -4.3664    5.4047 O   0  0  0  0  0  0  0  0  0  0  0  0
    8.9014   -3.6070    4.3581 N   0  0  0  0  0  0  0  0  0  0  0  0
    9.5604   -2.6968    3.4224 C   0  0  1  0  0  0  0  0  0  0  0  0
   10.1774   -3.2806    2.7393 H   0  0  0  0  0  0  0  0  0  0  0  0
    8.5775   -1.9190    2.6083 C   0  0  0  0  0  0  0  0  0  0  0  0
    9.0085   -1.2013    1.7308 O   0  0  0  0  0  0  0  0  0  0  0  0
   10.4642   -1.7350    4.2066 C   0  0  0  0  0  0  0  0  0  0  0  0
   11.2558   -2.5268    5.2158 C   0  0  0  0  0  0  0  0  0  0  0  0
   12.4593   -2.1352    5.9209 C   0  0  0  0  0  0  0  0  0  0  0  0
   13.2347   -0.9718    5.8991 C   0  0  0  0  0  0  0  0  0  0  0  0
   14.3375   -0.9458    6.7167 C   0  0  0  0  0  0  0  0  0  0  0  0
   14.6765   -2.0155    7.5292 C   0  0  0  0  0  0  0  0  0  0  0  0
   13.9265   -3.1780    7.5715 C   0  0  0  0  0  0  0  0  0  0  0  0
   12.8007   -3.2327    6.7524 C   0  0  0  0  0  0  0  0  0  0  0  0
   11.8613   -4.2026    6.5510 N   0  0  0  0  0  0  0  0  0  0  0  0
   11.8460   -5.0653    6.9943 H   0  0  0  0  0  0  0  0  0  0  0  0
   10.9434   -3.7741    5.6292 C   0  0  0  0  0  0  0  0  0  0  0  0
    9.7499   -4.5490    5.1186 C   0  0  1  0  0  0  0  0  0  0  0  0
   10.0839   -5.3559    4.4664 H   0  0  0  0  0  0  0  0  0  0  0  0
    8.9729   -5.1154    6.2789 C   0  0  0  0  0  0  0  0  0  0  0  0
    8.6402   -6.4572    6.2969 C   0  0  0  0  0  0  0  0  0  0  0  0
    7.9280   -6.9816    7.3593 C   0  0  0  0  0  0  0  0  0  0  0  0
    7.5452   -6.1626    8.4092 C   0  0  0  0  0  0  0  0  0  0  0  0
    7.8802   -4.8109    8.3910 C   0  0  0  0  0  0  0  0  0  0  0  0
    8.5992   -4.2935    7.3257 C   0  0  0  0  0  0  0  0  0  0  0  0
    7.3947   -4.2259    9.5247 O   0  0  0  0  0  0  0  0  0  0  0  0
    6.4096   -5.1418   10.0384 C   0  0  0  0  0  0  0  0  0  0  0  0
    6.8499   -6.4244    9.5543 O   0  0  0  0  0  0  0  0  0  0  0  0
   -1.0750    1.4544   -0.2718 H   0  0  0  0  0  0  0  0  0  0  0  0
    0.9998    2.7804   -0.2851 H   0  0  0  0  0  0  0  0  0  0  0  0
    3.1855    1.6469   -0.2543 H   0  0  0  0  0  0  0  0  0  0  0  0
    1.2216   -2.1387   -0.2040 H   0  0  0  0  0  0  0  0  0  0  0  0
   -0.9641   -1.0051   -0.2363 H   0  0  0  0  0  0  0  0  0  0  0  0
    3.5908   -1.9748   -0.7077 H   0  0  0  0  0  0  0  0  0  0  0  0
    4.4104   -0.3949   -0.7291 H   0  0  0  0  0  0  0  0  0  0  0  0
    4.6037    0.8451    1.0677 H   0  0  0  0  0  0  0  0  0  0  0  0
    3.4860    0.4118    2.3974 H   0  0  0  0  0  0  0  0  0  0  0  0
    6.1093    0.7793    2.9415 H   0  0  0  0  0  0  0  0  0  0  0  0
    5.2467   -0.6037    3.6947 H   0  0  0  0  0  0  0  0  0  0  0  0
    5.1959   -2.9234    1.7586 H   0  0  0  0  0  0  0  0  0  0  0  0
    5.6722   -2.2164    0.1893 H   0  0  0  0  0  0  0  0  0  0  0  0
    6.0775   -2.1337    4.4926 H   0  0  0  0  0  0  0  0  0  0  0  0
    5.8837   -3.4350    3.3036 H   0  0  0  0  0  0  0  0  0  0  0  0
   11.1459   -1.2328    3.5202 H   0  0  0  0  0  0  0  0  0  0  0  0
    9.8510   -0.9958    4.7219 H   0  0  0  0  0  0  0  0  0  0  0  0
   12.9785   -0.1333    5.2685 H   0  0  0  0  0  0  0  0  0  0  0  0
   14.9606   -0.0637    6.7265 H   0  0  0  0  0  0  0  0  0  0  0  0
   15.5565   -1.9398    8.1507 H   0  0  0  0  0  0  0  0  0  0  0  0
   14.2011   -4.0044    8.2103 H   0  0  0  0  0  0  0  0  0  0  0  0
    8.9371   -7.0970    5.4791 H   0  0  0  0  0  0  0  0  0  0  0  0
    7.6695   -8.0302    7.3708 H   0  0  0  0  0  0  0  0  0  0  0  0
    8.8643   -3.2466    7.3111 H   0  0  0  0  0  0  0  0  0  0  0  0
    6.4030   -5.1255   11.1283 H   0  0  0  0  0  0  0  0  0  0  0  0
    5.4218   -4.9023    9.6448 H   0  0  0  0  0  0  0  0  0  0  0  0
    3.3833   -1.7031    1.6908 H   0  0  0  0  0  0  0  0  0  0  0  0
  1  6  2  0  0  0  0
  1  2  1  0  0  0  0
  1 45  1  0  0  0  0
  2  3  2  0  0  0  0
  2 46  1  0  0  0  0
  3  4  1  0  0  0  0
  3 47  1  0  0  0  0
  4  5  2  0  0  0  0
  4  7  1  0  0  0  0
  5  6  1  0  0  0  0
  5 48  1  0  0  0  0
  6 49  1  0  0  0  0
  7  8  1  0  0  0  0
  7 50  1  0  0  0  0
  7 51  1  0  0  0  0
  8 13  1  0  0  0  0
  8  9  1  0  0  0  0
  8 71  1  0  0  0  0
  9 10  1  0  0  0  0
  9 52  1  0  0  0  0
  9 53  1  0  0  0  0
 10 11  1  0  0  0  0
 10 54  1  0  0  0  0
 10 55  1  0  0  0  0
 11 12  1  0  0  0  0
 11 13  1  0  0  0  0
 11 14  1  0  0  0  0
 13 56  1  0  0  0  0
 13 57  1  0  0  0  0
 14 21  1  0  0  0  0
 14 15  1  0  0  0  0
 15 16  1  0  0  0  0
 15 58  1  0  0  0  0
 15 59  1  0  0  0  0
 16 17  2  0  0  0  0
 16 18  1  0  0  0  0
 18 34  1  0  0  0  0
 18 19  1  0  0  0  0
 19 20  1  0  0  0  0
 19 21  1  0  0  0  0
 19 23  1  0  0  0  0
 21 22  2  0  0  0  0
 23 24  1  0  0  0  0
 23 60  1  0  0  0  0
 23 61  1  0  0  0  0
 24 33  2  0  0  0  0
 24 25  1  0  0  0  0
 25 30  2  0  0  0  0
 25 26  1  0  0  0  0
 26 27  2  0  0  0  0
 26 62  1  0  0  0  0
 27 28  1  0  0  0  0
 27 63  1  0  0  0  0
 28 29  2  0  0  0  0
 28 64  1  0  0  0  0
 29 30  1  0  0  0  0
 29 65  1  0  0  0  0
 30 31  1  0  0  0  0
 31 32  1  0  0  0  0
 31 33  1  0  0  0  0
 33 34  1  0  0  0  0
 34 35  1  0  0  0  0
 34 36  1  0  0  0  0
 36 41  2  0  0  0  0
 36 37  1  0  0  0  0
 37 38  2  0  0  0  0
 37 66  1  0  0  0  0
 38 39  1  0  0  0  0
 38 67  1  0  0  0  0
 39 44  1  0  0  0  0
 39 40  2  0  0  0  0
 40 41  1  0  0  0  0
 40 42  1  0  0  0  0
 41 68  1  0  0  0  0
 42 43  1  0  0  0  0
 43 44  1  0  0  0  0
 43 69  1  0  0  0  0
 43 70  1  0  0  0  0
M  CHG  1   8   1
M  END
$$$$
CHEMBL32255
  -OEChem-07121202283D

 70 77  0     1  0  0  0  0  0999 V2000
   -0.1338    0.9606   -0.2595 C   0  0  0  0  0  0  0  0  0  0  0  0
    1.0315    1.7043   -0.2680 C   0  0  0  0  0  0  0  0  0  0  0  0
    2.2581    1.0672   -0.2515 C   0  0  0  0  0  0  0  0  0  0  0  0
    2.3196   -0.3136   -0.2260 C   0  0  0  0  0  0  0  0  0  0  0  0
    1.1544   -1.0572   -0.2165 C   0  0  0  0  0  0  0  0  0  0  0  0
   -0.0723   -0.4202   -0.2344 C   0  0  0  0  0  0  0  0  0  0  0  0
    3.6569   -1.0081   -0.2090 C   0  0  0  0  0  0  0  0  0  0  0  0
    4.0870   -1.2084    1.1813 N   0  0  2  0  0  0  0  0  0  0  0  0
    4.4254    0.0803    1.8221 C   0  0  0  0  0  0  0  0  0  0  0  0
    5.5830   -0.2539    2.7956 C   0  0  0  0  0  0  0  0  0  0  0  0
    6.3770   -1.3130    1.9865 C   0  0  2  0  0  0  0  0  0  0  0  0
    7.0487   -0.8312    1.2760 H   0  0  0  0  0  0  0  0  0  0  0  0
    5.2671   -2.0898    1.2476 C   0  0  0  0  0  0  0  0  0  0  0  0
    7.1237   -2.1978    2.8843 N   0  0  0  0  0  0  0  0  0  0  0  0
    6.3776   -2.9576    3.8734 C   0  0  0  0  0  0  0  0  0  0  0  0
    7.2594   -3.8676    4.6651 C   0  0  0  0  0  0  0  0  0  0  0  0
    6.7385   -4.5694    5.5059 O   0  0  0  0  0  0  0  0  0  0  0  0
    8.5816   -3.9605    4.5090 N   0  0  0  0  0  0  0  0  0  0  0  0
    9.3390   -3.1124    3.5896 C   0  0  1  0  0  0  0  0  0  0  0  0
    9.9267   -3.7483    2.9276 H   0  0  0  0  0  0  0  0  0  0  0  0
    8.4462   -2.2634    2.7434 C   0  0  0  0  0  0  0  0  0  0  0  0
    8.9592   -1.5884    1.8762 O   0  0  0  0  0  0  0  0  0  0  0  0
   10.2939   -2.2213    4.3964 C   0  0  0  0  0  0  0  0  0  0  0  0
   10.9892   -3.0676    5.4319 C   0  0  0  0  0  0  0  0  0  0  0  0
   12.1992   -2.7695    6.1710 C   0  0  0  0  0  0  0  0  0  0  0  0
   13.0661   -1.6724    6.1674 C   0  0  0  0  0  0  0  0  0  0  0  0
   14.1429   -1.7298    7.0174 C   0  0  0  0  0  0  0  0  0  0  0  0
   14.3707   -2.8179    7.8440 C   0  0  0  0  0  0  0  0  0  0  0  0
   13.5285   -3.9160    7.8688 C   0  0  0  0  0  0  0  0  0  0  0  0
   12.4264   -3.8854    7.0167 C   0  0  0  0  0  0  0  0  0  0  0  0
   11.4183   -4.7780    6.7915 N   0  0  0  0  0  0  0  0  0  0  0  0
   11.3205   -5.6337    7.2377 H   0  0  0  0  0  0  0  0  0  0  0  0
   10.5653   -4.2830    5.8410 C   0  0  0  0  0  0  0  0  0  0  0  0
    9.3288   -4.9627    5.2983 C   0  0  1  0  0  0  0  0  0  0  0  0
    9.6156   -5.7981    4.6596 H   0  0  0  0  0  0  0  0  0  0  0  0
    8.4749   -5.4573    6.4373 C   0  0  0  0  0  0  0  0  0  0  0  0
    8.0349   -6.7678    6.4510 C   0  0  0  0  0  0  0  0  0  0  0  0
    7.2518   -7.2263    7.4938 C   0  0  0  0  0  0  0  0  0  0  0  0
    6.9056   -6.3724    8.5284 C   0  0  0  0  0  0  0  0  0  0  0  0
    7.3489   -5.0522    8.5147 C   0  0  0  0  0  0  0  0  0  0  0  0
    8.1381   -4.6012    7.4691 C   0  0  0  0  0  0  0  0  0  0  0  0
    6.8791   -4.4226    9.6310 O   0  0  0  0  0  0  0  0  0  0  0  0
    5.8087   -5.2530   10.1189 C   0  0  0  0  0  0  0  0  0  0  0  0
    6.1582   -6.5700    9.6534 O   0  0  0  0  0  0  0  0  0  0  0  0
   -1.0922    1.4584   -0.2679 H   0  0  0  0  0  0  0  0  0  0  0  0
    0.9835    2.7830   -0.2880 H   0  0  0  0  0  0  0  0  0  0  0  0
    3.1685    1.6482   -0.2589 H   0  0  0  0  0  0  0  0  0  0  0  0
    1.2024   -2.1360   -0.1969 H   0  0  0  0  0  0  0  0  0  0  0  0
   -0.9827   -1.0012   -0.2274 H   0  0  0  0  0  0  0  0  0  0  0  0
    3.5707   -1.9746   -0.7054 H   0  0  0  0  0  0  0  0  0  0  0  0
    4.3912   -0.3953   -0.7318 H   0  0  0  0  0  0  0  0  0  0  0  0
    4.7550    0.8012    1.0738 H   0  0  0  0  0  0  0  0  0  0  0  0
    3.5674    0.4678    2.3715 H   0  0  0  0  0  0  0  0  0  0  0  0
    6.1947    0.6267    2.9919 H   0  0  0  0  0  0  0  0  0  0  0  0
    5.2018   -0.6775    3.7248 H   0  0  0  0  0  0  0  0  0  0  0  0
    5.0211   -2.9981    1.7976 H   0  0  0  0  0  0  0  0  0  0  0  0
    5.5986   -2.3419    0.2403 H   0  0  0  0  0  0  0  0  0  0  0  0
    5.8829   -2.2641    4.5533 H   0  0  0  0  0  0  0  0  0  0  0  0
    5.6198   -3.5533    3.3645 H   0  0  0  0  0  0  0  0  0  0  0  0
   11.0337   -1.7800    3.7285 H   0  0  0  0  0  0  0  0  0  0  0  0
    9.7274   -1.4318    4.8902 H   0  0  0  0  0  0  0  0  0  0  0  0
   12.8968   -0.8201    5.5261 H   0  0  0  0  0  0  0  0  0  0  0  0
   14.8345   -0.9006    7.0421 H   0  0  0  0  0  0  0  0  0  0  0  0
   15.2353   -2.8092    8.4911 H   0  0  0  0  0  0  0  0  0  0  0  0
   13.7167   -4.7577    8.5189 H   0  0  0  0  0  0  0  0  0  0  0  0
    8.3032   -7.4347    5.6449 H   0  0  0  0  0  0  0  0  0  0  0  0
    6.9095   -8.2506    7.5019 H   0  0  0  0  0  0  0  0  0  0  0  0
    8.4870   -3.5791    7.4581 H   0  0  0  0  0  0  0  0  0  0  0  0
    5.7715   -5.2291   11.2080 H   0  0  0  0  0  0  0  0  0  0  0  0
    4.8554   -4.9374    9.6951 H   0  0  0  0  0  0  0  0  0  0  0  0
  1  6  2  0  0  0  0
  1  2  1  0  0  0  0
  1 45  1  0  0  0  0
  2  3  2  0  0  0  0
  2 46  1  0  0  0  0
  3  4  1  0  0  0  0
  3 47  1  0  0  0  0
  4  5  2  0  0  0  0
  4  7  1  0  0  0  0
  5  6  1  0  0  0  0
  5 48  1  0  0  0  0
  6 49  1  0  0  0  0
  7  8  1  0  0  0  0
  7 50  1  0  0  0  0
  7 51  1  0  0  0  0
  8 13  1  0  0  0  0
  8  9  1  0  0  0  0
  9 10  1  0  0  0  0
  9 52  1  0  0  0  0
  9 53  1  0  0  0  0
 10 11  1  0  0  0  0
 10 54  1  0  0  0  0
 10 55  1  0  0  0  0
 11 12  1  0  0  0  0
 11 13  1  0  0  0  0
 11 14  1  0  0  0  0
 13 56  1  0  0  0  0
 13 57  1  0  0  0  0
 14 21  1  0  0  0  0
 14 15  1  0  0  0  0
 15 16  1  0  0  0  0
 15 58  1  0  0  0  0
 15 59  1  0  0  0  0
 16 17  2  0  0  0  0
 16 18  1  0  0  0  0
 18 34  1  0  0  0  0
 18 19  1  0  0  0  0
 19 20  1  0  0  0  0
 19 21  1  0  0  0  0
 19 23  1  0  0  0  0
 21 22  2  0  0  0  0
 23 24  1  0  0  0  0
 23 60  1  0  0  0  0
 23 61  1  0  0  0  0
 24 33  2  0  0  0  0
 24 25  1  0  0  0  0
 25 30  2  0  0  0  0
 25 26  1  0  0  0  0
 26 27  2  0  0  0  0
 26 62  1  0  0  0  0
 27 28  1  0  0  0  0
 27 63  1  0  0  0  0
 28 29  2  0  0  0  0
 28 64  1  0  0  0  0
 29 30  1  0  0  0  0
 29 65  1  0  0  0  0
 30 31  1  0  0  0  0
 31 32  1  0  0  0  0
 31 33  1  0  0  0  0
 33 34  1  0  0  0  0
 34 35  1  0  0  0  0
 34 36  1  0  0  0  0
 36 41  2  0  0  0  0
 36 37  1  0  0  0  0
 37 38  2  0  0  0  0
 37 66  1  0  0  0  0
 38 39  1  0  0  0  0
 38 67  1  0  0  0  0
 39 44  1  0  0  0  0
 39 40  2  0  0  0  0
 40 41  1  0  0  0  0
 40 42  1  0  0  0  0
 41 68  1  0  0  0  0
 42 43  1  0  0  0  0
 43 44  1  0  0  0  0
 43 69  1  0  0  0  0
 43 70  1  0  0  0  0
M  END
$$$$
CHEMBL568839
  -OEChem-07121202283D

 57 59  0     0  0  0  0  0  0999 V2000
   -0.0187    1.5258    0.0104 C   0  0  0  0  0  0  0  0  0  0  0  0
    0.0021   -0.0041    0.0020 C   0  0  0  0  0  0  0  0  0  0  0  0
   -1.4333   -0.5336    0.0129 C   0  0  0  0  0  0  0  0  0  0  0  0
   -1.4139   -1.9625    0.0050 O   0  0  0  0  0  0  0  0  0  0  0  0
   -2.7113   -2.5614    0.0142 C   0  0  0  0  0  0  0  0  0  0  0  0
   -2.5698   -4.0848    0.0047 C   0  0  0  0  0  0  0  0  0  0  0  0
   -1.9315   -4.5238    1.2481 N   0  0  0  0  0  0  0  0  0  0  0  0
   -0.5589   -4.6260    1.3332 C   0  0  0  0  0  0  0  0  0  0  0  0
    0.2518   -4.3168    0.2469 C   0  0  0  0  0  0  0  0  0  0  0  0
    1.6302   -4.4358    0.3839 C   0  0  0  0  0  0  0  0  0  0  0  0
    2.1740   -4.8381    1.5299 N   0  0  0  0  0  0  0  0  0  0  0  0
    1.4483   -5.1407    2.5821 C   0  0  0  0  0  0  0  0  0  0  0  0
    0.0504   -5.0484    2.5319 C   0  0  0  0  0  0  0  0  0  0  0  0
   -0.6973   -5.3575    3.6092 N   0  0  0  0  0  0  0  0  0  0  0  0
   -2.0032   -5.2729    3.5673 C   0  0  0  0  0  0  0  0  0  0  0  0
   -2.6780   -4.8299    2.3328 C   0  0  0  0  0  0  0  0  0  0  0  0
   -3.8913   -4.7448    2.2901 O   0  0  0  0  0  0  0  0  0  0  0  0
   -2.7519   -5.5952    4.6854 N   0  0  0  0  0  0  0  0  0  0  0  0
   -2.0832   -6.0305    5.9141 C   0  0  0  0  0  0  0  0  0  0  0  0
   -3.1160   -6.3182    6.9732 C   0  0  0  0  0  0  0  0  0  0  0  0
   -4.2946   -6.1739    6.7259 O   0  0  0  0  0  0  0  0  0  0  0  0
   -2.7300   -6.7359    8.1950 N   0  0  0  0  0  0  0  0  0  0  0  0
   -3.7340   -7.0156    9.2246 C   0  0  0  0  0  0  0  0  0  0  0  0
    2.5080   -4.1099   -0.7649 C   0  0  0  0  0  0  0  0  0  0  0  0
    3.8891   -4.3266   -0.6873 C   0  0  0  0  0  0  0  0  0  0  0  0
    4.6661   -4.0074   -1.7835 C   0  0  0  0  0  0  0  0  0  0  0  0
    4.0567   -3.4855   -2.9193 C   0  0  0  0  0  0  0  0  0  0  0  0
    2.7484   -3.2923   -2.9607 N   0  0  0  0  0  0  0  0  0  0  0  0
    1.9703   -3.5891   -1.9394 C   0  0  0  0  0  0  0  0  0  0  0  0
    4.8139   -3.1699   -3.9993 O   0  0  0  0  0  0  0  0  0  0  0  0
    4.1318   -2.6377   -5.1366 C   0  0  0  0  0  0  0  0  0  0  0  0
    1.0039    1.9031    0.0027 H   0  0  0  0  0  0  0  0  0  0  0  0
   -0.5459    1.8868   -0.8726 H   0  0  0  0  0  0  0  0  0  0  0  0
   -0.5289    1.8773    0.9072 H   0  0  0  0  0  0  0  0  0  0  0  0
    0.5123   -0.3556   -0.8948 H   0  0  0  0  0  0  0  0  0  0  0  0
    0.5293   -0.3651    0.8851 H   0  0  0  0  0  0  0  0  0  0  0  0
   -1.9435   -0.1821    0.9097 H   0  0  0  0  0  0  0  0  0  0  0  0
   -1.9605   -0.1726   -0.8702 H   0  0  0  0  0  0  0  0  0  0  0  0
   -3.2480   -2.2520    0.9110 H   0  0  0  0  0  0  0  0  0  0  0  0
   -3.2650   -2.2424   -0.8688 H   0  0  0  0  0  0  0  0  0  0  0  0
   -3.5564   -4.5409   -0.0779 H   0  0  0  0  0  0  0  0  0  0  0  0
   -1.9574   -4.3876   -0.8447 H   0  0  0  0  0  0  0  0  0  0  0  0
   -0.1815   -3.9904   -0.6869 H   0  0  0  0  0  0  0  0  0  0  0  0
    1.9320   -5.4634    3.4923 H   0  0  0  0  0  0  0  0  0  0  0  0
   -3.7194   -5.5330    4.6557 H   0  0  0  0  0  0  0  0  0  0  0  0
   -1.5069   -6.9337    5.7137 H   0  0  0  0  0  0  0  0  0  0  0  0
   -1.4150   -5.2430    6.2627 H   0  0  0  0  0  0  0  0  0  0  0  0
   -1.7874   -6.8513    8.3928 H   0  0  0  0  0  0  0  0  0  0  0  0
   -3.2366   -7.3394   10.1388 H   0  0  0  0  0  0  0  0  0  0  0  0
   -4.3103   -6.1123    9.4249 H   0  0  0  0  0  0  0  0  0  0  0  0
   -4.4023   -7.8030    8.8760 H   0  0  0  0  0  0  0  0  0  0  0  0
    4.3359   -4.7330    0.2080 H   0  0  0  0  0  0  0  0  0  0  0  0
    5.7348   -4.1609   -1.7588 H   0  0  0  0  0  0  0  0  0  0  0  0
    0.9058   -3.4224   -2.0121 H   0  0  0  0  0  0  0  0  0  0  0  0
    4.8523   -2.4290   -5.9275 H   0  0  0  0  0  0  0  0  0  0  0  0
    3.4002   -3.3625   -5.4936 H   0  0  0  0  0  0  0  0  0  0  0  0
    3.6228   -1.7155   -4.8563 H   0  0  0  0  0  0  0  0  0  0  0  0
  1  2  1  0  0  0  0
  1 32  1  0  0  0  0
  1 33  1  0  0  0  0
  1 34  1  0  0  0  0
  2  3  1  0  0  0  0
  2 35  1  0  0  0  0
  2 36  1  0  0  0  0
  3  4  1  0  0  0  0
  3 37  1  0  0  0  0
  3 38  1  0  0  0  0
  4  5  1  0  0  0  0
  5  6  1  0  0  0  0
  5 39  1  0  0  0  0
  5 40  1  0  0  0  0
  6  7  1  0  0  0  0
  6 41  1  0  0  0  0
  6 42  1  0  0  0  0
  7 16  1  0  0  0  0
  7  8  1  0  0  0  0
  8 13  2  0  0  0  0
  8  9  1  0  0  0  0
  9 10  2  0  0  0  0
  9 43  1  0  0  0  0
 10 11  1  0  0  0  0
 10 24  1  0  0  0  0
 11 12  2  0  0  0  0
 12 13  1  0  0  0  0
 12 44  1  0  0  0  0
 13 14  1  0  0  0  0
 14 15  2  0  0  0  0
 15 16  1  0  0  0  0
 15 18  1  0  0  0  0
 16 17  2  0  0  0  0
 18 19  1  0  0  0  0
 18 45  1  0  0  0  0
 19 20  1  0  0  0  0
 19 46  1  0  0  0  0
 19 47  1  0  0  0  0
 20 21  2  0  0  0  0
 20 22  1  0  0  0  0
 22 23  1  0  0  0  0
 22 48  1  0  0  0  0
 23 49  1  0  0  0  0
 23 50  1  0  0  0  0
 23 51  1  0  0  0  0
 24 29  2  0  0  0  0
 24 25  1  0  0  0  0
 25 26  2  0  0  0  0
 25 52  1  0  0  0  0
 26 27  1  0  0  0  0
 26 53  1  0  0  0  0
 27 28  2  0  0  0  0
 27 30  1  0  0  0  0
 28 29  1  0  0  0  0
 29 54  1  0  0  0  0
 30 31  1  0  0  0  0
 31 55  1  0  0  0  0
 31 56  1  0  0  0  0
 31 57  1  0  0  0  0
M  END
$$$$
CHEMBL343941
  -OEChem-07121202283D

 61 67  0     1  0  0  0  0  0999 V2000
   -0.2374    1.1659    0.2459 C   0  0  0  0  0  0  0  0  0  0  0  0
    0.8882    1.9729    0.2738 C   0  0  0  0  0  0  0  0  0  0  0  0
    2.1706    1.4540    0.2285 C   0  0  0  0  0  0  0  0  0  0  0  0
    2.2880    0.0677    0.1521 C   0  0  0  0  0  0  0  0  0  0  0  0
    1.1318   -0.7537    0.1227 C   0  0  0  0  0  0  0  0  0  0  0  0
   -0.1522   -0.2024    0.1707 C   0  0  0  0  0  0  0  0  0  0  0  0
    1.6121   -2.1181    0.0402 C   0  0  0  0  0  0  0  0  0  0  0  0
    2.9614   -2.0616    0.0242 C   0  0  0  0  0  0  0  0  0  0  0  0
    3.3740   -0.7575    0.0940 N   0  0  0  0  0  0  0  0  0  0  0  0
    4.2987   -0.4643    0.1011 H   0  0  0  0  0  0  0  0  0  0  0  0
    3.8472   -3.2835   -0.0649 C   0  0  2  0  0  0  0  0  0  0  0  0
    4.3051   -3.3376   -1.0526 H   0  0  0  0  0  0  0  0  0  0  0  0
    2.9920   -4.4687    0.1577 N   0  0  0  0  0  0  0  0  0  0  0  0
    1.7051   -4.5223   -0.5346 C   0  0  2  0  0  0  0  0  0  0  0  0
    1.8731   -4.3771   -1.6017 H   0  0  0  0  0  0  0  0  0  0  0  0
    0.8064   -3.3907   -0.0162 C   0  0  0  0  0  0  0  0  0  0  0  0
    1.0101   -5.8294   -0.3288 C   0  0  0  0  0  0  0  0  0  0  0  0
   -0.0244   -6.0235   -0.9313 O   0  0  0  0  0  0  0  0  0  0  0  0
    1.4547   -6.7945    0.4737 N   0  0  0  0  0  0  0  0  0  0  0  0
    2.6795   -6.6995    1.2504 C   0  0  0  0  0  0  0  0  0  0  0  0
    3.4213   -5.4330    0.9745 C   0  0  0  0  0  0  0  0  0  0  0  0
    4.4727   -5.2575    1.5530 O   0  0  0  0  0  0  0  0  0  0  0  0
    0.6634   -8.0228    0.5803 C   0  0  0  0  0  0  0  0  0  0  0  0
    0.2281   -8.2247    2.0331 C   0  0  0  0  0  0  0  0  0  0  0  0
   -0.5983   -9.5074    2.1443 C   0  0  0  0  0  0  0  0  0  0  0  0
    0.2483  -10.7001    1.6952 C   0  0  0  0  0  0  0  0  0  0  0  0
    0.6836  -10.4983    0.2424 C   0  0  0  0  0  0  0  0  0  0  0  0
    1.5100   -9.2155    0.1312 C   0  0  0  0  0  0  0  0  0  0  0  0
    4.9185   -3.2175    0.9929 C   0  0  0  0  0  0  0  0  0  0  0  0
    6.2447   -3.3922    0.6433 C   0  0  0  0  0  0  0  0  0  0  0  0
    7.2311   -3.3320    1.6099 C   0  0  0  0  0  0  0  0  0  0  0  0
    6.8923   -3.0967    2.9326 C   0  0  0  0  0  0  0  0  0  0  0  0
    5.5564   -2.9208    3.2847 C   0  0  0  0  0  0  0  0  0  0  0  0
    4.5737   -2.9767    2.3097 C   0  0  0  0  0  0  0  0  0  0  0  0
    5.4847   -2.7062    4.6308 O   0  0  0  0  0  0  0  0  0  0  0  0
    6.7454   -3.1578    5.1598 C   0  0  0  0  0  0  0  0  0  0  0  0
    7.6575   -2.9923    4.0581 O   0  0  0  0  0  0  0  0  0  0  0  0
   -1.2129    1.6275    0.2892 H   0  0  0  0  0  0  0  0  0  0  0  0
    0.7608    3.0438    0.3326 H   0  0  0  0  0  0  0  0  0  0  0  0
    3.0401    2.0942    0.2509 H   0  0  0  0  0  0  0  0  0  0  0  0
   -1.0354   -0.8236    0.1495 H   0  0  0  0  0  0  0  0  0  0  0  0
    0.4453   -3.6391    0.9818 H   0  0  0  0  0  0  0  0  0  0  0  0
   -0.0396   -3.2579   -0.6905 H   0  0  0  0  0  0  0  0  0  0  0  0
    2.4316   -6.7519    2.3105 H   0  0  0  0  0  0  0  0  0  0  0  0
    3.3254   -7.5403    0.9974 H   0  0  0  0  0  0  0  0  0  0  0  0
   -0.2184   -7.9433   -0.0555 H   0  0  0  0  0  0  0  0  0  0  0  0
    1.1099   -8.3042    2.6689 H   0  0  0  0  0  0  0  0  0  0  0  0
   -0.3751   -7.3750    2.3530 H   0  0  0  0  0  0  0  0  0  0  0  0
   -0.9084   -9.6512    3.1794 H   0  0  0  0  0  0  0  0  0  0  0  0
   -1.4801   -9.4279    1.5086 H   0  0  0  0  0  0  0  0  0  0  0  0
    1.1301  -10.7797    2.3310 H   0  0  0  0  0  0  0  0  0  0  0  0
   -0.3405  -11.6140    1.7745 H   0  0  0  0  0  0  0  0  0  0  0  0
    1.2868  -11.3480   -0.0775 H   0  0  0  0  0  0  0  0  0  0  0  0
   -0.1982  -10.4187   -0.3934 H   0  0  0  0  0  0  0  0  0  0  0  0
    1.8201   -9.0717   -0.9039 H   0  0  0  0  0  0  0  0  0  0  0  0
    2.3918   -9.2951    0.7669 H   0  0  0  0  0  0  0  0  0  0  0  0
    6.5106   -3.5765   -0.3871 H   0  0  0  0  0  0  0  0  0  0  0  0
    8.2662   -3.4689    1.3340 H   0  0  0  0  0  0  0  0  0  0  0  0
    3.5373   -2.8361    2.5792 H   0  0  0  0  0  0  0  0  0  0  0  0
    7.0495   -2.5402    6.0049 H   0  0  0  0  0  0  0  0  0  0  0  0
    6.6845   -4.2060    5.4525 H   0  0  0  0  0  0  0  0  0  0  0  0
  1  6  2  0  0  0  0
  1  2  1  0  0  0  0
  1 38  1  0  0  0  0
  2  3  2  0  0  0  0
  2 39  1  0  0  0  0
  3  4  1  0  0  0  0
  3 40  1  0  0  0  0
  4  9  1  0  0  0  0
  4  5  2  0  0  0  0
  5  6  1  0  0  0  0
  5  7  1  0  0  0  0
  6 41  1  0  0  0  0
  7 16  1  0  0  0  0
  7  8  2  0  0  0  0
  8  9  1  0  0  0  0
  8 11  1  0  0  0  0
  9 10  1  0  0  0  0
 11 12  1  0  0  0  0
 11 13  1  0  0  0  0
 11 29  1  0  0  0  0
 13 21  1  0  0  0  0
 13 14  1  0  0  0  0
 14 15  1  0  0  0  0
 14 16  1  0  0  0  0
 14 17  1  0  0  0  0
 16 42  1  0  0  0  0
 16 43  1  0  0  0  0
 17 18  2  0  0  0  0
 17 19  1  0  0  0  0
 19 20  1  0  0  0  0
 19 23  1  0  0  0  0
 20 21  1  0  0  0  0
 20 44  1  0  0  0  0
 20 45  1  0  0  0  0
 21 22  2  0  0  0  0
 23 28  1  0  0  0  0
 23 24  1  0  0  0  0
 23 46  1  0  0  0  0
 24 25  1  0  0  0  0
 24 47  1  0  0  0  0
 24 48  1  0  0  0  0
 25 26  1  0  0  0  0
 25 49  1  0  0  0  0
 25 50  1  0  0  0  0
 26 27  1  0  0  0  0
 26 51  1  0  0  0  0
 26 52  1  0  0  0  0
 27 28  1  0  0  0  0
 27 53  1  0  0  0  0
 27 54  1  0  0  0  0
 28 55  1  0  0  0  0
 28 56  1  0  0  0  0
 29 34  2  0  0  0  0
 29 30  1  0  0  0  0
 30 31  2  0  0  0  0
 30 57  1  0  0  0  0
 31 32  1  0  0  0  0
 31 58  1  0  0  0  0
 32 37  1  0  0  0  0
 32 33  2  0  0  0  0
 33 34  1  0  0  0  0
 33 35  1  0  0  0  0
 34 59  1  0  0  0  0
 35 36  1  0  0  0  0
 36 37  1  0  0  0  0
 36 60  1  0  0  0  0
 36 61  1  0  0  0  0
M  END
$$$$
CHEMBL179849
  -OEChem-07121202283D

 47 50  0     0  0  0  0  0  0999 V2000
   -0.0187    1.5258    0.0104 C   0  0  0  0  0  0  0  0  0  0  0  0
    0.0021   -0.0041    0.0020 C   0  0  0  0  0  0  0  0  0  0  0  0
    0.6709   -0.4649   -1.1737 O   0  0  0  0  0  0  0  0  0  0  0  0
    0.7767   -1.8088   -1.3360 C   0  0  0  0  0  0  0  0  0  0  0  0
    0.2437   -2.6682   -0.3882 C   0  0  0  0  0  0  0  0  0  0  0  0
    0.3520   -4.0354   -0.5544 C   0  0  0  0  0  0  0  0  0  0  0  0
    0.9923   -4.5567   -1.6658 C   0  0  0  0  0  0  0  0  0  0  0  0
    1.5283   -3.7151   -2.6177 C   0  0  0  0  0  0  0  0  0  0  0  0
    1.4195   -2.3322   -2.4645 C   0  0  0  0  0  0  0  0  0  0  0  0
    1.9855   -1.4251   -3.4844 C   0  0  0  0  0  0  0  0  0  0  0  0
    2.6080   -1.9721   -4.5880 N   0  0  0  0  0  0  0  0  0  0  0  0
    3.1378   -1.1740   -5.5422 C   0  0  0  0  0  0  0  0  0  0  0  0
    3.0312    0.2741   -5.3701 C   0  0  0  0  0  0  0  0  0  0  0  0
    3.4322    1.3671   -6.0974 C   0  0  0  0  0  0  0  0  0  0  0  0
    3.0485    2.4542   -5.4267 N   0  0  0  0  0  0  0  0  0  0  0  0
    2.4316    2.1012   -4.3234 C   0  0  0  0  0  0  0  0  0  0  0  0
    2.3949    0.7634   -4.2421 N   0  0  0  0  0  0  0  0  0  0  0  0
    1.8737   -0.1396   -3.3112 N   0  0  0  0  0  0  0  0  0  0  0  0
    1.8551    3.0516   -3.3058 C   0  0  0  0  0  0  0  0  0  0  0  0
    2.9366    4.0495   -2.8222 C   0  0  0  0  0  0  0  0  0  0  0  0
    2.0948    5.2476   -2.3172 C   0  0  0  0  0  0  0  0  0  0  0  0
    0.9295    5.3422   -3.3237 C   0  0  0  0  0  0  0  0  0  0  0  0
    0.7771    3.9460   -3.9522 C   0  0  0  0  0  0  0  0  0  0  0  0
    4.1697    1.3432   -7.4114 C   0  0  0  0  0  0  0  0  0  0  0  0
    3.6894   -1.6484   -6.5184 O   0  0  0  0  0  0  0  0  0  0  0  0
    1.0039    1.9031    0.0027 H   0  0  0  0  0  0  0  0  0  0  0  0
   -0.5459    1.8868   -0.8726 H   0  0  0  0  0  0  0  0  0  0  0  0
   -0.5289    1.8773    0.9072 H   0  0  0  0  0  0  0  0  0  0  0  0
    0.5293   -0.3651    0.8851 H   0  0  0  0  0  0  0  0  0  0  0  0
   -1.0205   -0.3814    0.0098 H   0  0  0  0  0  0  0  0  0  0  0  0
   -0.2565   -2.2686    0.4816 H   0  0  0  0  0  0  0  0  0  0  0  0
   -0.0648   -4.7012    0.1868 H   0  0  0  0  0  0  0  0  0  0  0  0
    1.0727   -5.6268   -1.7876 H   0  0  0  0  0  0  0  0  0  0  0  0
    2.0273   -4.1257   -3.4831 H   0  0  0  0  0  0  0  0  0  0  0  0
    1.4381    2.5000   -2.4632 H   0  0  0  0  0  0  0  0  0  0  0  0
    3.5231    3.6198   -2.0101 H   0  0  0  0  0  0  0  0  0  0  0  0
    3.5810    4.3509   -3.6481 H   0  0  0  0  0  0  0  0  0  0  0  0
    1.7171    5.0523   -1.3136 H   0  0  0  0  0  0  0  0  0  0  0  0
    2.6867    6.1627   -2.3318 H   0  0  0  0  0  0  0  0  0  0  0  0
    0.0114    5.6212   -2.8067 H   0  0  0  0  0  0  0  0  0  0  0  0
    1.1616    6.0759   -4.0957 H   0  0  0  0  0  0  0  0  0  0  0  0
    0.9352    4.0021   -5.0293 H   0  0  0  0  0  0  0  0  0  0  0  0
   -0.2150    3.5473   -3.7403 H   0  0  0  0  0  0  0  0  0  0  0  0
    3.4514    1.3315   -8.2311 H   0  0  0  0  0  0  0  0  0  0  0  0
    4.7981    2.2302   -7.4915 H   0  0  0  0  0  0  0  0  0  0  0  0
    4.7932    0.4505   -7.4618 H   0  0  0  0  0  0  0  0  0  0  0  0
    2.6662   -2.9360   -4.6797 H   0  0  0  0  0  0  0  0  0  0  0  0
  1  2  1  0  0  0  0
  1 26  1  0  0  0  0
  1 27  1  0  0  0  0
  1 28  1  0  0  0  0
  2  3  1  0  0  0  0
  2 29  1  0  0  0  0
  2 30  1  0  0  0  0
  3  4  1  0  0  0  0
  4  9  2  0  0  0  0
  4  5  1  0  0  0  0
  5  6  2  0  0  0  0
  5 31  1  0  0  0  0
  6  7  1  0  0  0  0
  6 32  1  0  0  0  0
  7  8  2  0  0  0  0
  7 33  1  0  0  0  0
  8  9  1  0  0  0  0
  8 34  1  0  0  0  0
  9 10  1  0  0  0  0
 10 18  2  0  0  0  0
 10 11  1  0  0  0  0
 11 12  1  0  0  0  0
 11 47  1  0  0  0  0
 12 13  1  0  0  0  0
 12 25  2  0  0  0  0
 13 17  1  0  0  0  0
 13 14  2  0  0  0  0
 14 15  1  0  0  0  0
 14 24  1  0  0  0  0
 15 16  2  0  0  0  0
 16 17  1  0  0  0  0
 16 19  1  0  0  0  0
 17 18  1  0  0  0  0
 19 23  1  0  0  0  0
 19 20  1  0  0  0  0
 19 35  1  0  0  0  0
 20 21  1  0  0  0  0
 20 36  1  0  0  0  0
 20 37  1  0  0  0  0
 21 22  1  0  0  0  0
 21 38  1  0  0  0  0
 21 39  1  0  0  0  0
 22 23  1  0  0  0  0
 22 40  1  0  0  0  0
 22 41  1  0  0  0  0
 23 42  1  0  0  0  0
 23 43  1  0  0  0  0
 24 44  1  0  0  0  0
 24 45  1  0  0  0  0
 24 46  1  0  0  0  0
M  END
$$$$
CHEMBL179849
  -OEChem-07121202283D

 47 50  0     0  0  0  0  0  0999 V2000
   -0.0187    1.5258    0.0104 C   0  0  0  0  0  0  0  0  0  0  0  0
    0.0021   -0.0041    0.0020 C   0  0  0  0  0  0  0  0  0  0  0  0
    0.6709   -0.4649   -1.1737 O   0  0  0  0  0  0  0  0  0  0  0  0
    0.7766   -1.8075   -1.3358 C   0  0  0  0  0  0  0  0  0  0  0  0
    0.2434   -2.6679   -0.3878 C   0  0  0  0  0  0  0  0  0  0  0  0
    0.3512   -4.0343   -0.5543 C   0  0  0  0  0  0  0  0  0  0  0  0
    0.9911   -4.5570   -1.6668 C   0  0  0  0  0  0  0  0  0  0  0  0
    1.5272   -3.7180   -2.6188 C   0  0  0  0  0  0  0  0  0  0  0  0
    1.4204   -2.3323   -2.4661 C   0  0  0  0  0  0  0  0  0  0  0  0
    1.9860   -1.4288   -3.4831 C   0  0  0  0  0  0  0  0  0  0  0  0
    1.8790   -0.1283   -3.3059 N   0  0  0  0  0  0  0  0  0  0  0  0
    2.3758    0.7459   -4.2001 C   0  0  0  0  0  0  0  0  0  0  0  0
    3.0510    0.2284   -5.3977 C   0  0  0  0  0  0  0  0  0  0  0  0
    3.6539    0.7915   -6.4767 C   0  0  0  0  0  0  0  0  0  0  0  0
    4.0971   -0.1998   -7.2557 N   0  0  0  0  0  0  0  0  0  0  0  0
    3.7986   -1.3546   -6.7126 C   0  0  0  0  0  0  0  0  0  0  0  0
    3.1494   -1.1415   -5.5589 N   0  0  0  0  0  0  0  0  0  0  0  0
    2.6067   -1.9709   -4.5720 N   0  0  0  0  0  0  0  0  0  0  0  0
    4.1313   -2.7054   -7.2920 C   0  0  0  0  0  0  0  0  0  0  0  0
    3.5835   -2.8257   -8.7358 C   0  0  0  0  0  0  0  0  0  0  0  0
    4.4882   -3.9202   -9.3545 C   0  0  0  0  0  0  0  0  0  0  0  0
    5.8844   -3.6356   -8.7634 C   0  0  0  0  0  0  0  0  0  0  0  0
    5.6575   -2.8632   -7.4521 C   0  0  0  0  0  0  0  0  0  0  0  0
    3.7964    2.2672   -6.7470 C   0  0  0  0  0  0  0  0  0  0  0  0
    2.2672    1.9467   -4.0196 O   0  0  0  0  0  0  0  0  0  0  0  0
    1.0039    1.9031    0.0027 H   0  0  0  0  0  0  0  0  0  0  0  0
   -0.5459    1.8868   -0.8726 H   0  0  0  0  0  0  0  0  0  0  0  0
   -0.5289    1.8773    0.9072 H   0  0  0  0  0  0  0  0  0  0  0  0
    0.5293   -0.3651    0.8851 H   0  0  0  0  0  0  0  0  0  0  0  0
   -1.0205   -0.3814    0.0098 H   0  0  0  0  0  0  0  0  0  0  0  0
   -0.2565   -2.2685    0.4823 H   0  0  0  0  0  0  0  0  0  0  0  0
   -0.0654   -4.6998    0.1872 H   0  0  0  0  0  0  0  0  0  0  0  0
    1.0702   -5.6273   -1.7879 H   0  0  0  0  0  0  0  0  0  0  0  0
    2.0256   -4.1300   -3.4838 H   0  0  0  0  0  0  0  0  0  0  0  0
    3.7297   -3.4991   -6.6621 H   0  0  0  0  0  0  0  0  0  0  0  0
    2.5413   -3.1449   -8.7282 H   0  0  0  0  0  0  0  0  0  0  0  0
    3.6961   -1.8831   -9.2715 H   0  0  0  0  0  0  0  0  0  0  0  0
    4.1438   -4.9114   -9.0596 H   0  0  0  0  0  0  0  0  0  0  0  0
    4.5080   -3.8297  -10.4406 H   0  0  0  0  0  0  0  0  0  0  0  0
    6.4018   -4.5731   -8.5598 H   0  0  0  0  0  0  0  0  0  0  0  0
    6.4673   -3.0300   -9.4574 H   0  0  0  0  0  0  0  0  0  0  0  0
    6.1302   -1.8828   -7.5096 H   0  0  0  0  0  0  0  0  0  0  0  0
    6.0648   -3.4259   -6.6121 H   0  0  0  0  0  0  0  0  0  0  0  0
    4.7267    2.6287   -6.3087 H   0  0  0  0  0  0  0  0  0  0  0  0
    3.8107    2.4397   -7.8232 H   0  0  0  0  0  0  0  0  0  0  0  0
    2.9550    2.8005   -6.3047 H   0  0  0  0  0  0  0  0  0  0  0  0
    2.6682   -2.9346   -4.6631 H   0  0  0  0  0  0  0  0  0  0  0  0
  1  2  1  0  0  0  0
  1 26  1  0  0  0  0
  1 27  1  0  0  0  0
  1 28  1  0  0  0  0
  2  3  1  0  0  0  0
  2 29  1  0  0  0  0
  2 30  1  0  0  0  0
  3  4  1  0  0  0  0
  4  9  2  0  0  0  0
  4  5  1  0  0  0  0
  5  6  2  0  0  0  0
  5 31  1  0  0  0  0
  6  7  1  0  0  0  0
  6 32  1  0  0  0  0
  7  8  2  0  0  0  0
  7 33  1  0  0  0  0
  8  9  1  0  0  0  0
  8 34  1  0  0  0  0
  9 10  1  0  0  0  0
 10 18  1  0  0  0  0
 10 11  2  0  0  0  0
 11 12  1  0  0  0  0
 12 13  1  0  0  0  0
 12 25  2  0  0  0  0
 13 17  1  0  0  0  0
 13 14  2  0  0  0  0
 14 15  1  0  0  0  0
 14 24  1  0  0  0  0
 15 16  2  0  0  0  0
 16 17  1  0  0  0  0
 16 19  1  0  0  0  0
 17 18  1  0  0  0  0
 18 47  1  0  0  0  0
 19 23  1  0  0  0  0
 19 20  1  0  0  0  0
 19 35  1  0  0  0  0
 20 21  1  0  0  0  0
 20 36  1  0  0  0  0
 20 37  1  0  0  0  0
 21 22  1  0  0  0  0
 21 38  1  0  0  0  0
 21 39  1  0  0  0  0
 22 23  1  0  0  0  0
 22 40  1  0  0  0  0
 22 41  1  0  0  0  0
 23 42  1  0  0  0  0
 23 43  1  0  0  0  0
 24 44  1  0  0  0  0
 24 45  1  0  0  0  0
 24 46  1  0  0  0  0
M  END
$$$$
CHEMBL179849
  -OEChem-07121202283D

 46 49  0     0  0  0  0  0  0999 V2000
   -0.0187    1.5258    0.0104 C   0  0  0  0  0  0  0  0  0  0  0  0
    0.0021   -0.0041    0.0020 C   0  0  0  0  0  0  0  0  0  0  0  0
   -1.3386   -0.4987    0.0122 O   0  0  0  0  0  0  0  0  0  0  0  0
   -1.4982   -1.8472    0.0064 C   0  0  0  0  0  0  0  0  0  0  0  0
   -0.3894   -2.6790   -0.0029 C   0  0  0  0  0  0  0  0  0  0  0  0
   -0.5532   -4.0508   -0.0092 C   0  0  0  0  0  0  0  0  0  0  0  0
   -1.8225   -4.6030   -0.0063 C   0  0  0  0  0  0  0  0  0  0  0  0
   -2.9352   -3.7875    0.0030 C   0  0  0  0  0  0  0  0  0  0  0  0
   -2.7820   -2.4021    0.0157 C   0  0  0  0  0  0  0  0  0  0  0  0
   -3.9737   -1.5213    0.0324 C   0  0  0  0  0  0  0  0  0  0  0  0
   -5.1930   -2.0792    0.0465 N   0  0  0  0  0  0  0  0  0  0  0  0
   -6.2893   -1.3456    0.0621 C   0  0  0  0  0  0  0  0  0  0  0  0
   -6.1778    0.0618    0.0640 C   0  0  0  0  0  0  0  0  0  0  0  0
   -7.0724    1.1090    0.0770 C   0  0  0  0  0  0  0  0  0  0  0  0
   -6.3641    2.2375    0.0702 N   0  0  0  0  0  0  0  0  0  0  0  0
   -5.0813    1.9588    0.0537 C   0  0  0  0  0  0  0  0  0  0  0  0
   -4.9144    0.6295    0.0492 N   0  0  0  0  0  0  0  0  0  0  0  0
   -3.8019   -0.2191    0.0382 N   0  0  0  0  0  0  0  0  0  0  0  0
   -3.9694    2.9759    0.0412 C   0  0  0  0  0  0  0  0  0  0  0  0
   -4.1494    3.9613   -1.1401 C   0  0  0  0  0  0  0  0  0  0  0  0
   -3.3627    5.2090   -0.6674 C   0  0  0  0  0  0  0  0  0  0  0  0
   -3.6569    5.2911    0.8448 C   0  0  0  0  0  0  0  0  0  0  0  0
   -4.0426    3.8713    1.2953 C   0  0  0  0  0  0  0  0  0  0  0  0
   -8.5752    0.9986    0.0948 C   0  0  0  0  0  0  0  0  0  0  0  0
   -7.5070   -1.9354    0.0758 O   0  5  0  0  0  0  0  0  0  0  0  0
    1.0039    1.9031    0.0027 H   0  0  0  0  0  0  0  0  0  0  0  0
   -0.5459    1.8868   -0.8726 H   0  0  0  0  0  0  0  0  0  0  0  0
   -0.5289    1.8773    0.9072 H   0  0  0  0  0  0  0  0  0  0  0  0
    0.5123   -0.3556   -0.8948 H   0  0  0  0  0  0  0  0  0  0  0  0
    0.5293   -0.3651    0.8851 H   0  0  0  0  0  0  0  0  0  0  0  0
    0.6036   -2.2543   -0.0056 H   0  0  0  0  0  0  0  0  0  0  0  0
    0.3133   -4.6954   -0.0168 H   0  0  0  0  0  0  0  0  0  0  0  0
   -1.9422   -5.6763   -0.0116 H   0  0  0  0  0  0  0  0  0  0  0  0
   -3.9239   -4.2220    0.0046 H   0  0  0  0  0  0  0  0  0  0  0  0
   -3.0005    2.4799   -0.0174 H   0  0  0  0  0  0  0  0  0  0  0  0
   -3.7148    3.5537   -2.0529 H   0  0  0  0  0  0  0  0  0  0  0  0
   -5.2026    4.2011   -1.2861 H   0  0  0  0  0  0  0  0  0  0  0  0
   -2.2951    5.0755   -0.8416 H   0  0  0  0  0  0  0  0  0  0  0  0
   -3.7243    6.1031   -1.1754 H   0  0  0  0  0  0  0  0  0  0  0  0
   -2.7680    5.6243    1.3805 H   0  0  0  0  0  0  0  0  0  0  0  0
   -4.4830    5.9782    1.0277 H   0  0  0  0  0  0  0  0  0  0  0  0
   -5.0559    3.8693    1.6968 H   0  0  0  0  0  0  0  0  0  0  0  0
   -3.3409    3.5154    2.0496 H   0  0  0  0  0  0  0  0  0  0  0  0
   -8.9252    0.9698    1.1266 H   0  0  0  0  0  0  0  0  0  0  0  0
   -9.0089    1.8607   -0.4120 H   0  0  0  0  0  0  0  0  0  0  0  0
   -8.8786    0.0855   -0.4175 H   0  0  0  0  0  0  0  0  0  0  0  0
  1  2  1  0  0  0  0
  1 26  1  0  0  0  0
  1 27  1  0  0  0  0
  1 28  1  0  0  0  0
  2  3  1  0  0  0  0
  2 29  1  0  0  0  0
  2 30  1  0  0  0  0
  3  4  1  0  0  0  0
  4  9  2  0  0  0  0
  4  5  1  0  0  0  0
  5  6  2  0  0  0  0
  5 31  1  0  0  0  0
  6  7  1  0  0  0  0
  6 32  1  0  0  0  0
  7  8  2  0  0  0  0
  7 33  1  0  0  0  0
  8  9  1  0  0  0  0
  8 34  1  0  0  0  0
  9 10  1  0  0  0  0
 10 18  2  0  0  0  0
 10 11  1  0  0  0  0
 11 12  2  0  0  0  0
 12 13  1  0  0  0  0
 12 25  1  0  0  0  0
 13 17  1  0  0  0  0
 13 14  2  0  0  0  0
 14 15  1  0  0  0  0
 14 24  1  0  0  0  0
 15 16  2  0  0  0  0
 16 17  1  0  0  0  0
 16 19  1  0  0  0  0
 17 18  1  0  0  0  0
 19 23  1  0  0  0  0
 19 20  1  0  0  0  0
 19 35  1  0  0  0  0
 20 21  1  0  0  0  0
 20 36  1  0  0  0  0
 20 37  1  0  0  0  0
 21 22  1  0  0  0  0
 21 38  1  0  0  0  0
 21 39  1  0  0  0  0
 22 23  1  0  0  0  0
 22 40  1  0  0  0  0
 22 41  1  0  0  0  0
 23 42  1  0  0  0  0
 23 43  1  0  0  0  0
 24 44  1  0  0  0  0
 24 45  1  0  0  0  0
 24 46  1  0  0  0  0
M  CHG  1  25  -1
M  END
$$$$
CHEMBL42713
  -OEChem-07121202283D

 34 36  0     0  0  0  0  0  0999 V2000
   -0.0187    1.5258    0.0104 C   0  0  0  0  0  0  0  0  0  0  0  0
    0.0021   -0.0041    0.0020 C   0  0  0  0  0  0  0  0  0  0  0  0
    0.7182   -0.4975   -1.2568 C   0  0  0  0  0  0  0  0  0  0  0  0
    0.7376   -1.9263   -1.2646 O   0  0  0  0  0  0  0  0  0  0  0  0
    1.3405   -2.5286   -2.3210 C   0  0  0  0  0  0  0  0  0  0  0  0
    1.9079   -1.7632   -3.3280 C   0  0  0  0  0  0  0  0  0  0  0  0
    2.5212   -2.3773   -4.4025 C   0  0  0  0  0  0  0  0  0  0  0  0
    2.5745   -3.7590   -4.4829 C   0  0  0  0  0  0  0  0  0  0  0  0
    2.0158   -4.5352   -3.4903 C   0  0  0  0  0  0  0  0  0  0  0  0
    1.3973   -3.9267   -2.3956 C   0  0  0  0  0  0  0  0  0  0  0  0
    0.8022   -4.7516   -1.3266 C   0  0  0  0  0  0  0  0  0  0  0  0
    0.2212   -4.1558   -0.3090 N   0  0  0  0  0  0  0  0  0  0  0  0
   -0.3315   -4.8616    0.6828 C   0  0  0  0  0  0  0  0  0  0  0  0
   -0.2948   -6.2606    0.6438 C   0  0  0  0  0  0  0  0  0  0  0  0
    0.3342   -6.8924   -0.4574 C   0  0  0  0  0  0  0  0  0  0  0  0
    0.8659   -6.1134   -1.4255 N   0  0  0  0  0  0  0  0  0  0  0  0
    0.3897   -8.1078   -0.5324 O   0  0  0  0  0  0  0  0  0  0  0  0
   -0.9191   -6.7101    1.7575 N   0  0  0  0  0  0  0  0  0  0  0  0
   -1.1755   -3.6342    2.1551 H   0  0  0  0  0  0  0  0  0  0  0  0
   -1.3278   -5.6949    2.4624 C   0  0  0  0  0  0  0  0  0  0  0  0
   -0.9875   -4.5315    1.8383 N   0  0  0  0  0  0  0  0  0  0  0  0
    1.0039    1.9031    0.0027 H   0  0  0  0  0  0  0  0  0  0  0  0
   -0.5459    1.8868   -0.8726 H   0  0  0  0  0  0  0  0  0  0  0  0
   -0.5289    1.8773    0.9072 H   0  0  0  0  0  0  0  0  0  0  0  0
    0.5293   -0.3651    0.8851 H   0  0  0  0  0  0  0  0  0  0  0  0
   -1.0205   -0.3814    0.0098 H   0  0  0  0  0  0  0  0  0  0  0  0
    0.1910   -0.1364   -2.1398 H   0  0  0  0  0  0  0  0  0  0  0  0
    1.7408   -0.1202   -1.2645 H   0  0  0  0  0  0  0  0  0  0  0  0
    1.8701   -0.6853   -3.2724 H   0  0  0  0  0  0  0  0  0  0  0  0
    2.9615   -1.7766   -5.1846 H   0  0  0  0  0  0  0  0  0  0  0  0
    3.0555   -4.2302   -5.3272 H   0  0  0  0  0  0  0  0  0  0  0  0
    2.0593   -5.6122   -3.5571 H   0  0  0  0  0  0  0  0  0  0  0  0
    1.2980   -6.5224   -2.1917 H   0  0  0  0  0  0  0  0  0  0  0  0
   -1.8575   -5.7639    3.4010 H   0  0  0  0  0  0  0  0  0  0  0  0
  1  2  1  0  0  0  0
  1 22  1  0  0  0  0
  1 23  1  0  0  0  0
  1 24  1  0  0  0  0
  2  3  1  0  0  0  0
  2 25  1  0  0  0  0
  2 26  1  0  0  0  0
  3  4  1  0  0  0  0
  3 27  1  0  0  0  0
  3 28  1  0  0  0  0
  4  5  1  0  0  0  0
  5 10  2  0  0  0  0
  5  6  1  0  0  0  0
  6  7  2  0  0  0  0
  6 29  1  0  0  0  0
  7  8  1  0  0  0  0
  7 30  1  0  0  0  0
  8  9  2  0  0  0  0
  8 31  1  0  0  0  0
  9 10  1  0  0  0  0
  9 32  1  0  0  0  0
 10 11  1  0  0  0  0
 11 12  2  0  0  0  0
 11 16  1  0  0  0  0
 12 13  1  0  0  0  0
 13 21  1  0  0  0  0
 13 14  2  0  0  0  0
 14 15  1  0  0  0  0
 14 18  1  0  0  0  0
 15 16  1  0  0  0  0
 15 17  2  0  0  0  0
 16 33  1  0  0  0  0
 18 20  2  0  0  0  0
 19 21  1  0  0  0  0
 20 34  1  0  0  0  0
 20 21  1  0  0  0  0
M  END
$$$$
CHEMBL42713
  -OEChem-07121202283D

 34 36  0     0  0  0  0  0  0999 V2000
   -0.0187    1.5258    0.0104 C   0  0  0  0  0  0  0  0  0  0  0  0
    0.0021   -0.0041    0.0020 C   0  0  0  0  0  0  0  0  0  0  0  0
   -1.4333   -0.5336    0.0129 C   0  0  0  0  0  0  0  0  0  0  0  0
   -1.4139   -1.9625    0.0050 O   0  0  0  0  0  0  0  0  0  0  0  0
   -2.6147   -2.5951    0.0131 C   0  0  0  0  0  0  0  0  0  0  0  0
   -3.7894   -1.8588    0.0225 C   0  0  0  0  0  0  0  0  0  0  0  0
   -5.0107   -2.5037    0.0306 C   0  0  0  0  0  0  0  0  0  0  0  0
   -5.0721   -3.8874    0.0291 C   0  0  0  0  0  0  0  0  0  0  0  0
   -3.9137   -4.6346    0.0194 C   0  0  0  0  0  0  0  0  0  0  0  0
   -2.6725   -3.9948    0.0061 C   0  0  0  0  0  0  0  0  0  0  0  0
   -1.4283   -4.7890   -0.0096 C   0  0  0  0  0  0  0  0  0  0  0  0
   -0.2740   -4.1643   -0.0168 N   0  0  0  0  0  0  0  0  0  0  0  0
    0.8853   -4.8474   -0.0307 C   0  0  0  0  0  0  0  0  0  0  0  0
    0.8560   -6.2461   -0.0375 C   0  0  0  0  0  0  0  0  0  0  0  0
   -0.3879   -6.9042   -0.0295 C   0  0  0  0  0  0  0  0  0  0  0  0
   -1.5121   -6.1536   -0.0105 N   0  0  0  0  0  0  0  0  0  0  0  0
   -0.4502   -8.1222   -0.0355 O   0  0  0  0  0  0  0  0  0  0  0  0
    2.1717   -6.6587   -0.0518 N   0  0  0  0  0  0  0  0  0  0  0  0
    2.4879   -7.5757   -0.0599 H   0  0  0  0  0  0  0  0  0  0  0  0
    2.9368   -5.5473   -0.0534 C   0  0  0  0  0  0  0  0  0  0  0  0
    2.1793   -4.4839   -0.0410 N   0  0  0  0  0  0  0  0  0  0  0  0
    1.0039    1.9031    0.0027 H   0  0  0  0  0  0  0  0  0  0  0  0
   -0.5459    1.8868   -0.8726 H   0  0  0  0  0  0  0  0  0  0  0  0
   -0.5289    1.8773    0.9072 H   0  0  0  0  0  0  0  0  0  0  0  0
    0.5123   -0.3556   -0.8948 H   0  0  0  0  0  0  0  0  0  0  0  0
    0.5293   -0.3651    0.8851 H   0  0  0  0  0  0  0  0  0  0  0  0
   -1.9435   -0.1821    0.9097 H   0  0  0  0  0  0  0  0  0  0  0  0
   -1.9605   -0.1726   -0.8702 H   0  0  0  0  0  0  0  0  0  0  0  0
   -3.7494   -0.7795    0.0237 H   0  0  0  0  0  0  0  0  0  0  0  0
   -5.9231   -1.9258    0.0386 H   0  0  0  0  0  0  0  0  0  0  0  0
   -6.0316   -4.3830    0.0359 H   0  0  0  0  0  0  0  0  0  0  0  0
   -3.9661   -5.7133    0.0185 H   0  0  0  0  0  0  0  0  0  0  0  0
   -2.3811   -6.5846   -0.0012 H   0  0  0  0  0  0  0  0  0  0  0  0
    4.0167   -5.5386   -0.0637 H   0  0  0  0  0  0  0  0  0  0  0  0
  1  2  1  0  0  0  0
  1 22  1  0  0  0  0
  1 23  1  0  0  0  0
  1 24  1  0  0  0  0
  2  3  1  0  0  0  0
  2 25  1  0  0  0  0
  2 26  1  0  0  0  0
  3  4  1  0  0  0  0
  3 27  1  0  0  0  0
  3 28  1  0  0  0  0
  4  5  1  0  0  0  0
  5 10  2  0  0  0  0
  5  6  1  0  0  0  0
  6  7  2  0  0  0  0
  6 29  1  0  0  0  0
  7  8  1  0  0  0  0
  7 30  1  0  0  0  0
  8  9  2  0  0  0  0
  8 31  1  0  0  0  0
  9 10  1  0  0  0  0
  9 32  1  0  0  0  0
 10 11  1  0  0  0  0
 11 12  2  0  0  0  0
 11 16  1  0  0  0  0
 12 13  1  0  0  0  0
 13 21  1  0  0  0  0
 13 14  2  0  0  0  0
 14 15  1  0  0  0  0
 14 18  1  0  0  0  0
 15 16  1  0  0  0  0
 15 17  2  0  0  0  0
 16 33  1  0  0  0  0
 18 19  1  0  0  0  0
 18 20  1  0  0  0  0
 20 34  1  0  0  0  0
 20 21  2  0  0  0  0
M  END
$$$$
CHEMBL263000
  -OEChem-07121202283D

 51 56  0     1  0  0  0  0  0999 V2000
   -0.0167    1.3798    0.0096 C   0  0  0  0  0  0  0  0  0  0  0  0
    1.1681    2.0952    0.0022 C   0  0  0  0  0  0  0  0  0  0  0  0
    2.3774    1.4330   -0.0130 C   0  0  0  0  0  0  0  0  0  0  0  0
    2.4048    0.0349   -0.0208 C   0  0  0  0  0  0  0  0  0  0  0  0
    1.2034   -0.6808   -0.0131 C   0  0  0  0  0  0  0  0  0  0  0  0
    0.0021   -0.0041    0.0020 C   0  0  0  0  0  0  0  0  0  0  0  0
    3.6565   -0.6604   -0.0369 C   0  0  0  0  0  0  0  0  0  0  0  0
    4.6828   -1.2304   -0.0502 C   0  0  0  0  0  0  0  0  0  0  0  0
    5.9346   -1.9257   -0.0664 C   0  0  0  0  0  0  0  0  0  0  0  0
    5.9548   -3.1424   -0.0731 O   0  0  0  0  0  0  0  0  0  0  0  0
    7.0904   -1.2325   -0.0742 N   0  0  0  0  0  0  0  0  0  0  0  0
    7.2414    0.2263   -0.0614 C   0  0  0  0  0  0  0  0  0  0  0  0
    8.7192    0.5290   -0.0762 C   0  0  0  0  0  0  0  0  0  0  0  0
    9.3960    1.7740   -0.0714 C   0  0  0  0  0  0  0  0  0  0  0  0
   10.8678    1.7617   -0.0888 C   0  0  0  0  0  0  0  0  0  0  0  0
   11.6093    2.9428   -0.0848 C   0  0  0  0  0  0  0  0  0  0  0  0
   12.9750    2.8843   -0.1010 C   0  0  0  0  0  0  0  0  0  0  0  0
   13.6279    1.6595   -0.1214 C   0  0  0  0  0  0  0  0  0  0  0  0
   12.9140    0.4814   -0.1262 C   0  0  0  0  0  0  0  0  0  0  0  0
   11.5222    0.5177   -0.1094 C   0  0  0  0  0  0  0  0  0  0  0  0
   10.7787   -0.6380   -0.1126 N   0  0  0  0  0  0  0  0  0  0  0  0
    9.4167   -0.6250   -0.0963 C   0  0  0  0  0  0  0  0  0  0  0  0
    8.4477   -1.7862   -0.0906 C   0  0  2  0  0  0  0  0  0  0  0  0
    8.6449   -2.6188   -1.3311 C   0  0  0  0  0  0  0  0  0  0  0  0
    8.1037   -2.2037   -2.5337 C   0  0  0  0  0  0  0  0  0  0  0  0
    8.2822   -2.9639   -3.6744 C   0  0  0  0  0  0  0  0  0  0  0  0
    9.0043   -4.1448   -3.6147 C   0  0  0  0  0  0  0  0  0  0  0  0
    9.5494   -4.5630   -2.4033 C   0  0  0  0  0  0  0  0  0  0  0  0
    9.3713   -3.7931   -1.2653 C   0  0  0  0  0  0  0  0  0  0  0  0
   10.2068   -5.7421   -2.6047 O   0  0  0  0  0  0  0  0  0  0  0  0
    9.7138   -6.2478   -3.8595 C   0  0  0  0  0  0  0  0  0  0  0  0
    9.3203   -5.0619   -4.5751 O   0  0  0  0  0  0  0  0  0  0  0  0
    8.7769    2.8252   -0.0539 O   0  0  0  0  0  0  0  0  0  0  0  0
   -0.9607    1.9041    0.0260 H   0  0  0  0  0  0  0  0  0  0  0  0
    1.1453    3.1750    0.0078 H   0  0  0  0  0  0  0  0  0  0  0  0
    3.3011    1.9926   -0.0191 H   0  0  0  0  0  0  0  0  0  0  0  0
    1.2165   -1.7607   -0.0191 H   0  0  0  0  0  0  0  0  0  0  0  0
   -0.9266   -0.5554    0.0079 H   0  0  0  0  0  0  0  0  0  0  0  0
    6.7668    0.6552   -0.9439 H   0  0  0  0  0  0  0  0  0  0  0  0
    6.7884    0.6373    0.8409 H   0  0  0  0  0  0  0  0  0  0  0  0
   11.1071    3.8988   -0.0694 H   0  0  0  0  0  0  0  0  0  0  0  0
   13.5504    3.7982   -0.0983 H   0  0  0  0  0  0  0  0  0  0  0  0
   14.7074    1.6298   -0.1341 H   0  0  0  0  0  0  0  0  0  0  0  0
   13.4316   -0.4663   -0.1421 H   0  0  0  0  0  0  0  0  0  0  0  0
    8.6076   -2.3991    0.7964 H   0  0  0  0  0  0  0  0  0  0  0  0
    7.5399   -1.2838   -2.5819 H   0  0  0  0  0  0  0  0  0  0  0  0
    7.8584   -2.6372   -4.6125 H   0  0  0  0  0  0  0  0  0  0  0  0
    9.7967   -4.1127   -0.3254 H   0  0  0  0  0  0  0  0  0  0  0  0
   10.5024   -6.7751   -4.3963 H   0  0  0  0  0  0  0  0  0  0  0  0
    8.8559   -6.9006   -3.6988 H   0  0  0  0  0  0  0  0  0  0  0  0
   11.2392   -1.4916   -0.1269 H   0  0  0  0  0  0  0  0  0  0  0  0
  1  6  2  0  0  0  0
  1  2  1  0  0  0  0
  1 34  1  0  0  0  0
  2  3  2  0  0  0  0
  2 35  1  0  0  0  0
  3  4  1  0  0  0  0
  3 36  1  0  0  0  0
  4  5  2  0  0  0  0
  4  7  1  0  0  0  0
  5  6  1  0  0  0  0
  5 37  1  0  0  0  0
  6 38  1  0  0  0  0
  7  8  3  0  0  0  0
  8  9  1  0  0  0  0
  9 10  2  0  0  0  0
  9 11  1  0  0  0  0
 11 23  1  0  0  0  0
 11 12  1  0  0  0  0
 12 13  1  0  0  0  0
 12 39  1  0  0  0  0
 12 40  1  0  0  0  0
 13 22  2  0  0  0  0
 13 14  1  0  0  0  0
 14 15  1  0  0  0  0
 14 33  2  0  0  0  0
 15 20  2  0  0  0  0
 15 16  1  0  0  0  0
 16 17  2  0  0  0  0
 16 41  1  0  0  0  0
 17 18  1  0  0  0  0
 17 42  1  0  0  0  0
 18 19  2  0  0  0  0
 18 43  1  0  0  0  0
 19 20  1  0  0  0  0
 19 44  1  0  0  0  0
 20 21  1  0  0  0  0
 21 22  1  0  0  0  0
 21 51  1  0  0  0  0
 22 23  1  0  0  0  0
 23 24  1  0  0  0  0
 23 45  1  0  0  0  0
 24 29  2  0  0  0  0
 24 25  1  0  0  0  0
 25 26  2  0  0  0  0
 25 46  1  0  0  0  0
 26 27  1  0  0  0  0
 26 47  1  0  0  0  0
 27 32  1  0  0  0  0
 27 28  2  0  0  0  0
 28 29  1  0  0  0  0
 28 30  1  0  0  0  0
 29 48  1  0  0  0  0
 30 31  1  0  0  0  0
 31 32  1  0  0  0  0
 31 49  1  0  0  0  0
 31 50  1  0  0  0  0
M  END
$$$$
CHEMBL263000
  -OEChem-07121202283D

 51 56  0     1  0  0  0  0  0999 V2000
   -0.0167    1.3798    0.0096 C   0  0  0  0  0  0  0  0  0  0  0  0
    1.1681    2.0952    0.0022 C   0  0  0  0  0  0  0  0  0  0  0  0
    2.3774    1.4330   -0.0130 C   0  0  0  0  0  0  0  0  0  0  0  0
    2.4048    0.0349   -0.0208 C   0  0  0  0  0  0  0  0  0  0  0  0
    1.2034   -0.6808   -0.0131 C   0  0  0  0  0  0  0  0  0  0  0  0
    0.0021   -0.0041    0.0020 C   0  0  0  0  0  0  0  0  0  0  0  0
    3.6565   -0.6604   -0.0369 C   0  0  0  0  0  0  0  0  0  0  0  0
    4.6828   -1.2304   -0.0502 C   0  0  0  0  0  0  0  0  0  0  0  0
    5.9346   -1.9257   -0.0664 C   0  0  0  0  0  0  0  0  0  0  0  0
    5.9548   -3.1424   -0.0731 O   0  0  0  0  0  0  0  0  0  0  0  0
    7.0904   -1.2325   -0.0742 N   0  0  0  0  0  0  0  0  0  0  0  0
    7.2414    0.2263   -0.0614 C   0  0  0  0  0  0  0  0  0  0  0  0
    8.7192    0.5290   -0.0762 C   0  0  0  0  0  0  0  0  0  0  0  0
    9.3960    1.7740   -0.0714 C   0  0  0  0  0  0  0  0  0  0  0  0
   10.8678    1.7617   -0.0888 C   0  0  0  0  0  0  0  0  0  0  0  0
   11.6093    2.9428   -0.0848 C   0  0  0  0  0  0  0  0  0  0  0  0
   12.9750    2.8843   -0.1010 C   0  0  0  0  0  0  0  0  0  0  0  0
   13.6279    1.6595   -0.1214 C   0  0  0  0  0  0  0  0  0  0  0  0
   12.9140    0.4814   -0.1262 C   0  0  0  0  0  0  0  0  0  0  0  0
   11.5222    0.5177   -0.1094 C   0  0  0  0  0  0  0  0  0  0  0  0
   10.7787   -0.6380   -0.1126 N   0  0  0  0  0  0  0  0  0  0  0  0
    9.4167   -0.6250   -0.0963 C   0  0  0  0  0  0  0  0  0  0  0  0
    8.4477   -1.7862   -0.0906 C   0  0  1  0  0  0  0  0  0  0  0  0
    8.6688   -2.6336    1.1358 C   0  0  0  0  0  0  0  0  0  0  0  0
    8.1414   -2.2388    2.3512 C   0  0  0  0  0  0  0  0  0  0  0  0
    8.3410   -3.0130    3.4789 C   0  0  0  0  0  0  0  0  0  0  0  0
    9.0713   -4.1873    3.3934 C   0  0  0  0  0  0  0  0  0  0  0  0
    9.6027   -4.5849    2.1690 C   0  0  0  0  0  0  0  0  0  0  0  0
    9.3937   -3.8069    1.0418 C   0  0  0  0  0  0  0  0  0  0  0  0
   10.2721   -5.7613    2.3454 O   0  0  0  0  0  0  0  0  0  0  0  0
   10.4920   -5.8695    3.7643 C   0  0  0  0  0  0  0  0  0  0  0  0
    9.4078   -5.1145    4.3369 O   0  0  0  0  0  0  0  0  0  0  0  0
    8.7769    2.8252   -0.0539 O   0  0  0  0  0  0  0  0  0  0  0  0
   -0.9607    1.9041    0.0260 H   0  0  0  0  0  0  0  0  0  0  0  0
    1.1453    3.1750    0.0078 H   0  0  0  0  0  0  0  0  0  0  0  0
    3.3011    1.9926   -0.0191 H   0  0  0  0  0  0  0  0  0  0  0  0
    1.2165   -1.7607   -0.0191 H   0  0  0  0  0  0  0  0  0  0  0  0
   -0.9266   -0.5554    0.0079 H   0  0  0  0  0  0  0  0  0  0  0  0
    6.7668    0.6552   -0.9439 H   0  0  0  0  0  0  0  0  0  0  0  0
    6.7884    0.6373    0.8409 H   0  0  0  0  0  0  0  0  0  0  0  0
   11.1071    3.8988   -0.0694 H   0  0  0  0  0  0  0  0  0  0  0  0
   13.5504    3.7982   -0.0983 H   0  0  0  0  0  0  0  0  0  0  0  0
   14.7074    1.6298   -0.1341 H   0  0  0  0  0  0  0  0  0  0  0  0
   13.4316   -0.4663   -0.1421 H   0  0  0  0  0  0  0  0  0  0  0  0
    8.5903   -2.3884   -0.9879 H   0  0  0  0  0  0  0  0  0  0  0  0
    7.5724   -1.3234    2.4199 H   0  0  0  0  0  0  0  0  0  0  0  0
    7.9278   -2.7022    4.4271 H   0  0  0  0  0  0  0  0  0  0  0  0
    9.8007   -4.1151    0.0902 H   0  0  0  0  0  0  0  0  0  0  0  0
   10.4425   -6.9113    4.0812 H   0  0  0  0  0  0  0  0  0  0  0  0
   11.4512   -5.4301    4.0379 H   0  0  0  0  0  0  0  0  0  0  0  0
   11.2392   -1.4916   -0.1269 H   0  0  0  0  0  0  0  0  0  0  0  0
  1  6  2  0  0  0  0
  1  2  1  0  0  0  0
  1 34  1  0  0  0  0
  2  3  2  0  0  0  0
  2 35  1  0  0  0  0
  3  4  1  0  0  0  0
  3 36  1  0  0  0  0
  4  5  2  0  0  0  0
  4  7  1  0  0  0  0
  5  6  1  0  0  0  0
  5 37  1  0  0  0  0
  6 38  1  0  0  0  0
  7  8  3  0  0  0  0
  8  9  1  0  0  0  0
  9 10  2  0  0  0  0
  9 11  1  0  0  0  0
 11 23  1  0  0  0  0
 11 12  1  0  0  0  0
 12 13  1  0  0  0  0
 12 39  1  0  0  0  0
 12 40  1  0  0  0  0
 13 22  2  0  0  0  0
 13 14  1  0  0  0  0
 14 15  1  0  0  0  0
 14 33  2  0  0  0  0
 15 20  2  0  0  0  0
 15 16  1  0  0  0  0
 16 17  2  0  0  0  0
 16 41  1  0  0  0  0
 17 18  1  0  0  0  0
 17 42  1  0  0  0  0
 18 19  2  0  0  0  0
 18 43  1  0  0  0  0
 19 20  1  0  0  0  0
 19 44  1  0  0  0  0
 20 21  1  0  0  0  0
 21 22  1  0  0  0  0
 21 51  1  0  0  0  0
 22 23  1  0  0  0  0
 23 24  1  0  0  0  0
 23 45  1  0  0  0  0
 24 29  2  0  0  0  0
 24 25  1  0  0  0  0
 25 26  2  0  0  0  0
 25 46  1  0  0  0  0
 26 27  1  0  0  0  0
 26 47  1  0  0  0  0
 27 32  1  0  0  0  0
 27 28  2  0  0  0  0
 28 29  1  0  0  0  0
 28 30  1  0  0  0  0
 29 48  1  0  0  0  0
 30 31  1  0  0  0  0
 31 32  1  0  0  0  0
 31 49  1  0  0  0  0
 31 50  1  0  0  0  0
M  END
$$$$
CHEMBL140874
  -OEChem-07121202283D

 58 63  0     1  0  0  0  0  0999 V2000
    0.3080    1.3747   -0.2149 C   0  0  0  0  0  0  0  0  0  0  0  0
    0.0020   -0.0042    0.0020 O   0  0  0  0  0  0  0  0  0  0  0  0
    0.6258   -0.6185    1.0414 C   0  0  0  0  0  0  0  0  0  0  0  0
    1.5097    0.0928    1.8398 C   0  0  0  0  0  0  0  0  0  0  0  0
    2.1421   -0.5338    2.8962 C   0  0  0  0  0  0  0  0  0  0  0  0
    1.8951   -1.8688    3.1577 C   0  0  0  0  0  0  0  0  0  0  0  0
    1.0149   -2.5801    2.3632 C   0  0  0  0  0  0  0  0  0  0  0  0
    0.3753   -1.9564    1.3094 C   0  0  0  0  0  0  0  0  0  0  0  0
    2.5867   -2.5500    4.3104 C   0  0  1  0  0  0  0  0  0  0  0  0
    3.3304   -1.8834    4.7469 H   0  0  0  0  0  0  0  0  0  0  0  0
    1.5713   -2.9561    5.3603 C   0  0  0  0  0  0  0  0  0  0  0  0
    1.2501   -4.2382    5.6336 C   0  0  0  0  0  0  0  0  0  0  0  0
    0.2465   -4.2032    6.6815 C   0  0  0  0  0  0  0  0  0  0  0  0
   -0.4514   -5.2100    7.3554 C   0  0  0  0  0  0  0  0  0  0  0  0
   -1.3484   -4.8072    8.3140 C   0  0  0  0  0  0  0  0  0  0  0  0
   -1.5602   -3.4702    8.6083 C   0  0  0  0  0  0  0  0  0  0  0  0
   -0.8840   -2.4539    7.9561 C   0  0  0  0  0  0  0  0  0  0  0  0
    0.0330   -2.8331    6.9777 C   0  0  0  0  0  0  0  0  0  0  0  0
    0.8520   -2.1090    6.1604 N   0  0  0  0  0  0  0  0  0  0  0  0
    0.9150   -1.1412    6.1483 H   0  0  0  0  0  0  0  0  0  0  0  0
    1.8426   -5.4572    4.9722 C   0  0  0  0  0  0  0  0  0  0  0  0
    2.4830   -5.0524    3.6392 C   0  0  1  0  0  0  0  0  0  0  0  0
    1.7377   -4.9533    2.8500 H   0  0  0  0  0  0  0  0  0  0  0  0
    3.2272   -3.7892    3.8528 N   0  0  0  0  0  0  0  0  0  0  0  0
    4.5090   -4.0275    3.5690 C   0  0  0  0  0  0  0  0  0  0  0  0
    5.3777   -3.1777    3.5898 O   0  0  0  0  0  0  0  0  0  0  0  0
    4.7275   -5.3134    3.2587 N   0  0  0  0  0  0  0  0  0  0  0  0
    3.5621   -6.0496    3.2691 C   0  0  0  0  0  0  0  0  0  0  0  0
    3.4178   -7.2314    3.0405 O   0  0  0  0  0  0  0  0  0  0  0  0
    6.0438   -5.8697    2.9360 C   0  0  0  0  0  0  0  0  0  0  0  0
    6.7169   -6.3638    4.2181 C   0  0  0  0  0  0  0  0  0  0  0  0
    8.0709   -6.9360    3.8862 C   0  0  0  0  0  0  0  0  0  0  0  0
    9.1932   -6.4556    4.5346 C   0  0  0  0  0  0  0  0  0  0  0  0
   10.4341   -6.9887    4.2220 C   0  0  0  0  0  0  0  0  0  0  0  0
   10.5001   -7.9896    3.2644 C   0  0  0  0  0  0  0  0  0  0  0  0
    9.3352   -8.4193    2.6580 C   0  0  0  0  0  0  0  0  0  0  0  0
    8.1708   -7.8928    2.9844 N   0  0  0  0  0  0  0  0  0  0  0  0
    1.3752    1.4841   -0.4077 H   0  0  0  0  0  0  0  0  0  0  0  0
   -0.2557    1.7414   -1.0728 H   0  0  0  0  0  0  0  0  0  0  0  0
    0.0378    1.9504    0.6704 H   0  0  0  0  0  0  0  0  0  0  0  0
    1.7034    1.1354    1.6355 H   0  0  0  0  0  0  0  0  0  0  0  0
    2.8302    0.0195    3.5180 H   0  0  0  0  0  0  0  0  0  0  0  0
    0.8240   -3.6229    2.5693 H   0  0  0  0  0  0  0  0  0  0  0  0
   -0.3155   -2.5112    0.6918 H   0  0  0  0  0  0  0  0  0  0  0  0
   -0.2923   -6.2547    7.1329 H   0  0  0  0  0  0  0  0  0  0  0  0
   -1.9062   -5.5567    8.8558 H   0  0  0  0  0  0  0  0  0  0  0  0
   -2.2780   -3.2121    9.3729 H   0  0  0  0  0  0  0  0  0  0  0  0
   -1.0589   -1.4151    8.1943 H   0  0  0  0  0  0  0  0  0  0  0  0
    2.6015   -5.8913    5.6232 H   0  0  0  0  0  0  0  0  0  0  0  0
    1.0568   -6.1903    4.7903 H   0  0  0  0  0  0  0  0  0  0  0  0
    5.9263   -6.7028    2.2431 H   0  0  0  0  0  0  0  0  0  0  0  0
    6.6612   -5.0984    2.4756 H   0  0  0  0  0  0  0  0  0  0  0  0
    6.8344   -5.5307    4.9111 H   0  0  0  0  0  0  0  0  0  0  0  0
    6.0995   -7.1351    4.6786 H   0  0  0  0  0  0  0  0  0  0  0  0
    9.1045   -5.6746    5.2752 H   0  0  0  0  0  0  0  0  0  0  0  0
   11.3281   -6.6328    4.7122 H   0  0  0  0  0  0  0  0  0  0  0  0
   11.4501   -8.4275    2.9957 H   0  0  0  0  0  0  0  0  0  0  0  0
    9.3781   -9.1984    1.9113 H   0  0  0  0  0  0  0  0  0  0  0  0
  1  2  1  0  0  0  0
  1 38  1  0  0  0  0
  1 39  1  0  0  0  0
  1 40  1  0  0  0  0
  2  3  1  0  0  0  0
  3  8  2  0  0  0  0
  3  4  1  0  0  0  0
  4  5  2  0  0  0  0
  4 41  1  0  0  0  0
  5  6  1  0  0  0  0
  5 42  1  0  0  0  0
  6  7  2  0  0  0  0
  6  9  1  0  0  0  0
  7  8  1  0  0  0  0
  7 43  1  0  0  0  0
  8 44  1  0  0  0  0
  9 10  1  0  0  0  0
  9 24  1  0  0  0  0
  9 11  1  0  0  0  0
 11 19  1  0  0  0  0
 11 12  2  0  0  0  0
 12 13  1  0  0  0  0
 12 21  1  0  0  0  0
 13 18  2  0  0  0  0
 13 14  1  0  0  0  0
 14 15  2  0  0  0  0
 14 45  1  0  0  0  0
 15 16  1  0  0  0  0
 15 46  1  0  0  0  0
 16 17  2  0  0  0  0
 16 47  1  0  0  0  0
 17 18  1  0  0  0  0
 17 48  1  0  0  0  0
 18 19  1  0  0  0  0
 19 20  1  0  0  0  0
 21 22  1  0  0  0  0
 21 49  1  0  0  0  0
 21 50  1  0  0  0  0
 22 23  1  0  0  0  0
 22 28  1  0  0  0  0
 22 24  1  0  0  0  0
 24 25  1  0  0  0  0
 25 26  2  0  0  0  0
 25 27  1  0  0  0  0
 27 28  1  0  0  0  0
 27 30  1  0  0  0  0
 28 29  2  0  0  0  0
 30 31  1  0  0  0  0
 30 51  1  0  0  0  0
 30 52  1  0  0  0  0
 31 32  1  0  0  0  0
 31 53  1  0  0  0  0
 31 54  1  0  0  0  0
 32 37  2  0  0  0  0
 32 33  1  0  0  0  0
 33 34  2  0  0  0  0
 33 55  1  0  0  0  0
 34 35  1  0  0  0  0
 34 56  1  0  0  0  0
 35 36  2  0  0  0  0
 35 57  1  0  0  0  0
 36 37  1  0  0  0  0
 36 58  1  0  0  0  0
M  END
$$$$
CHEMBL1202833
  -OEChem-07121202283D

 74 78  0     0  0  0  0  0  0999 V2000
   -3.2475   -6.2547   -3.3123 C   0  0  0  0  0  0  0  0  0  0  0  0
   -2.5362   -4.9749   -3.6690 C   0  0  0  0  0  0  0  0  0  0  0  0
   -1.5698   -4.4706   -2.8190 C   0  0  0  0  0  0  0  0  0  0  0  0
   -0.9215   -3.2927   -3.1564 C   0  0  0  0  0  0  0  0  0  0  0  0
   -1.2709   -2.6631   -4.3415 C   0  0  0  0  0  0  0  0  0  0  0  0
   -2.2468   -3.2268   -5.1411 C   0  0  0  0  0  0  0  0  0  0  0  0
   -2.8390   -4.3520   -4.7909 N   0  0  0  0  0  0  0  0  0  0  0  0
    0.1375   -2.7099   -2.2564 C   0  0  0  0  0  0  0  0  0  0  0  0
    1.4619   -3.1106   -2.7377 N   0  0  0  0  0  0  0  0  0  0  0  0
    2.1375   -2.2752   -3.6032 C   0  0  0  0  0  0  0  0  0  0  0  0
    3.3901   -2.6005   -4.0904 C   0  0  0  0  0  0  0  0  0  0  0  0
    4.0119   -3.8642   -3.6742 C   0  0  0  0  0  0  0  0  0  0  0  0
    5.2783   -4.2488   -4.1328 C   0  0  0  0  0  0  0  0  0  0  0  0
    5.7873   -5.4417   -3.6971 C   0  0  0  0  0  0  0  0  0  0  0  0
    5.0403   -6.2333   -2.8184 C   0  0  0  0  0  0  0  0  0  0  0  0
    3.8468   -5.8551   -2.3962 N   0  0  0  0  0  0  0  0  0  0  0  0
    3.3100   -4.7067   -2.7896 C   0  0  0  0  0  0  0  0  0  0  0  0
    1.9809   -4.2786   -2.3163 C   0  0  0  0  0  0  0  0  0  0  0  0
    1.3518   -4.9829   -1.5484 O   0  0  0  0  0  0  0  0  0  0  0  0
    5.5634   -7.4410   -2.3815 N   0  0  0  0  0  0  0  0  0  0  0  0
    6.8851   -7.8757   -2.8403 C   0  0  0  0  0  0  0  0  0  0  0  0
    7.2171   -9.2101   -2.2239 C   0  0  0  0  0  0  0  0  0  0  0  0
    6.9586  -10.3712   -2.9281 C   0  0  0  0  0  0  0  0  0  0  0  0
    7.2677  -11.5936   -2.3520 C   0  0  0  0  0  0  0  0  0  0  0  0
    7.8278  -11.6026   -1.0834 C   0  0  0  0  0  0  0  0  0  0  0  0
    8.0575  -10.4014   -0.4402 C   0  0  0  0  0  0  0  0  0  0  0  0
    7.7556   -9.2565   -1.0212 N   0  0  0  0  0  0  0  0  0  0  0  0
    4.0932   -1.6891   -5.0174 C   0  0  0  0  0  0  0  0  0  0  0  0
    3.5654   -1.4379   -6.2856 C   0  0  0  0  0  0  0  0  0  0  0  0
    4.2250   -0.5843   -7.1511 C   0  0  0  0  0  0  0  0  0  0  0  0
    5.4141    0.0237   -6.7592 C   0  0  0  0  0  0  0  0  0  0  0  0
    5.9422   -0.2251   -5.4957 C   0  0  0  0  0  0  0  0  0  0  0  0
    5.2834   -1.0734   -4.6244 C   0  0  0  0  0  0  0  0  0  0  0  0
    7.1045    0.3701   -5.1158 O   0  0  0  0  0  0  0  0  0  0  0  0
    7.5890    0.0699   -3.8054 C   0  0  0  0  0  0  0  0  0  0  0  0
    6.0613    0.8619   -7.6124 O   0  0  0  0  0  0  0  0  0  0  0  0
    5.7123    2.2463   -7.5511 C   0  0  0  0  0  0  0  0  0  0  0  0
    3.7116   -0.3392   -8.3864 O   0  0  0  0  0  0  0  0  0  0  0  0
    2.4884   -0.9971   -8.7228 C   0  0  0  0  0  0  0  0  0  0  0  0
    1.5130   -1.0143   -4.0162 C   0  0  0  0  0  0  0  0  0  0  0  0
    2.1102   -0.2523   -4.7522 O   0  0  0  0  0  0  0  0  0  0  0  0
    0.2758   -0.6995   -3.5797 O   0  0  0  0  0  0  0  0  0  0  0  0
   -0.2711    0.5445   -4.0217 C   0  0  0  0  0  0  0  0  0  0  0  0
   -2.6969   -7.1023   -3.7205 H   0  0  0  0  0  0  0  0  0  0  0  0
   -3.3060   -6.3477   -2.2278 H   0  0  0  0  0  0  0  0  0  0  0  0
   -4.2539   -6.2397   -3.7305 H   0  0  0  0  0  0  0  0  0  0  0  0
   -1.3233   -4.9876   -1.9033 H   0  0  0  0  0  0  0  0  0  0  0  0
   -0.7867   -1.7437   -4.6357 H   0  0  0  0  0  0  0  0  0  0  0  0
   -2.5246   -2.7427   -6.0657 H   0  0  0  0  0  0  0  0  0  0  0  0
    0.0621   -1.6226   -2.2634 H   0  0  0  0  0  0  0  0  0  0  0  0
   -0.0064   -3.0776   -1.2405 H   0  0  0  0  0  0  0  0  0  0  0  0
    5.8371   -3.6215   -4.8115 H   0  0  0  0  0  0  0  0  0  0  0  0
    6.7606   -5.7705   -4.0301 H   0  0  0  0  0  0  0  0  0  0  0  0
    5.0542   -7.9981   -1.7722 H   0  0  0  0  0  0  0  0  0  0  0  0
    6.8804   -7.9682   -3.9264 H   0  0  0  0  0  0  0  0  0  0  0  0
    7.6331   -7.1413   -2.5415 H   0  0  0  0  0  0  0  0  0  0  0  0
    6.5211  -10.3265   -3.9144 H   0  0  0  0  0  0  0  0  0  0  0  0
    7.0766  -12.5170   -2.8785 H   0  0  0  0  0  0  0  0  0  0  0  0
    8.0809  -12.5367   -0.6040 H   0  0  0  0  0  0  0  0  0  0  0  0
    8.4934  -10.3999    0.5479 H   0  0  0  0  0  0  0  0  0  0  0  0
    2.6432   -1.9100   -6.5905 H   0  0  0  0  0  0  0  0  0  0  0  0
    5.6912   -1.2627   -3.6425 H   0  0  0  0  0  0  0  0  0  0  0  0
    6.8486    0.3744   -3.0657 H   0  0  0  0  0  0  0  0  0  0  0  0
    7.7676   -1.0020   -3.7208 H   0  0  0  0  0  0  0  0  0  0  0  0
    8.5204    0.6084   -3.6302 H   0  0  0  0  0  0  0  0  0  0  0  0
    6.3003    2.8019   -8.2816 H   0  0  0  0  0  0  0  0  0  0  0  0
    4.6517    2.3638   -7.7734 H   0  0  0  0  0  0  0  0  0  0  0  0
    5.9186    2.6291   -6.5516 H   0  0  0  0  0  0  0  0  0  0  0  0
    2.6311   -2.0766   -8.6738 H   0  0  0  0  0  0  0  0  0  0  0  0
    1.7110   -0.7010   -8.0184 H   0  0  0  0  0  0  0  0  0  0  0  0
    2.1902   -0.7154   -9.7326 H   0  0  0  0  0  0  0  0  0  0  0  0
   -1.2674    0.6741   -3.5989 H   0  0  0  0  0  0  0  0  0  0  0  0
    0.3719    1.3612   -3.6935 H   0  0  0  0  0  0  0  0  0  0  0  0
   -0.3350    0.5472   -5.1098 H   0  0  0  0  0  0  0  0  0  0  0  0
  1  2  1  0  0  0  0
  1 44  1  0  0  0  0
  1 45  1  0  0  0  0
  1 46  1  0  0  0  0
  2  7  2  0  0  0  0
  2  3  1  0  0  0  0
  3  4  2  0  0  0  0
  3 47  1  0  0  0  0
  4  5  1  0  0  0  0
  4  8  1  0  0  0  0
  5  6  2  0  0  0  0
  5 48  1  0  0  0  0
  6  7  1  0  0  0  0
  6 49  1  0  0  0  0
  8  9  1  0  0  0  0
  8 50  1  0  0  0  0
  8 51  1  0  0  0  0
  9 18  1  0  0  0  0
  9 10  1  0  0  0  0
 10 11  2  0  0  0  0
 10 40  1  0  0  0  0
 11 12  1  0  0  0  0
 11 28  1  0  0  0  0
 12 17  2  0  0  0  0
 12 13  1  0  0  0  0
 13 14  2  0  0  0  0
 13 52  1  0  0  0  0
 14 15  1  0  0  0  0
 14 53  1  0  0  0  0
 15 16  2  0  0  0  0
 15 20  1  0  0  0  0
 16 17  1  0  0  0  0
 17 18  1  0  0  0  0
 18 19  2  0  0  0  0
 20 21  1  0  0  0  0
 20 54  1  0  0  0  0
 21 22  1  0  0  0  0
 21 55  1  0  0  0  0
 21 56  1  0  0  0  0
 22 27  2  0  0  0  0
 22 23  1  0  0  0  0
 23 24  2  0  0  0  0
 23 57  1  0  0  0  0
 24 25  1  0  0  0  0
 24 58  1  0  0  0  0
 25 26  2  0  0  0  0
 25 59  1  0  0  0  0
 26 27  1  0  0  0  0
 26 60  1  0  0  0  0
 28 33  2  0  0  0  0
 28 29  1  0  0  0  0
 29 30  2  0  0  0  0
 29 61  1  0  0  0  0
 30 31  1  0  0  0  0
 30 38  1  0  0  0  0
 31 32  2  0  0  0  0
 31 36  1  0  0  0  0
 32 33  1  0  0  0  0
 32 34  1  0  0  0  0
 33 62  1  0  0  0  0
 34 35  1  0  0  0  0
 35 63  1  0  0  0  0
 35 64  1  0  0  0  0
 35 65  1  0  0  0  0
 36 37  1  0  0  0  0
 37 66  1  0  0  0  0
 37 67  1  0  0  0  0
 37 68  1  0  0  0  0
 38 39  1  0  0  0  0
 39 69  1  0  0  0  0
 39 70  1  0  0  0  0
 39 71  1  0  0  0  0
 40 41  2  0  0  0  0
 40 42  1  0  0  0  0
 42 43  1  0  0  0  0
 43 72  1  0  0  0  0
 43 73  1  0  0  0  0
 43 74  1  0  0  0  0
M  END
$$$$
CHEMBL1202833
  -OEChem-07121202283D

 75 79  0     0  0  0  0  0  0999 V2000
   -3.2475   -6.2547   -3.3123 C   0  0  0  0  0  0  0  0  0  0  0  0
   -2.5362   -4.9749   -3.6690 C   0  0  0  0  0  0  0  0  0  0  0  0
   -1.5698   -4.4706   -2.8190 C   0  0  0  0  0  0  0  0  0  0  0  0
   -0.9215   -3.2927   -3.1564 C   0  0  0  0  0  0  0  0  0  0  0  0
   -1.2709   -2.6631   -4.3415 C   0  0  0  0  0  0  0  0  0  0  0  0
   -2.2468   -3.2268   -5.1411 C   0  0  0  0  0  0  0  0  0  0  0  0
   -2.8390   -4.3520   -4.7909 N   0  3  0  0  0  0  0  0  0  0  0  0
    0.1375   -2.7099   -2.2564 C   0  0  0  0  0  0  0  0  0  0  0  0
    1.4619   -3.1106   -2.7377 N   0  0  0  0  0  0  0  0  0  0  0  0
    2.1375   -2.2752   -3.6032 C   0  0  0  0  0  0  0  0  0  0  0  0
    3.3901   -2.6005   -4.0904 C   0  0  0  0  0  0  0  0  0  0  0  0
    4.0119   -3.8642   -3.6742 C   0  0  0  0  0  0  0  0  0  0  0  0
    5.2783   -4.2488   -4.1328 C   0  0  0  0  0  0  0  0  0  0  0  0
    5.7873   -5.4417   -3.6971 C   0  0  0  0  0  0  0  0  0  0  0  0
    5.0403   -6.2333   -2.8184 C   0  0  0  0  0  0  0  0  0  0  0  0
    3.8468   -5.8551   -2.3962 N   0  0  0  0  0  0  0  0  0  0  0  0
    3.3100   -4.7067   -2.7896 C   0  0  0  0  0  0  0  0  0  0  0  0
    1.9809   -4.2786   -2.3163 C   0  0  0  0  0  0  0  0  0  0  0  0
    1.3518   -4.9829   -1.5484 O   0  0  0  0  0  0  0  0  0  0  0  0
    5.5634   -7.4410   -2.3815 N   0  0  0  0  0  0  0  0  0  0  0  0
    6.8851   -7.8757   -2.8403 C   0  0  0  0  0  0  0  0  0  0  0  0
    7.2171   -9.2101   -2.2239 C   0  0  0  0  0  0  0  0  0  0  0  0
    6.9586  -10.3712   -2.9281 C   0  0  0  0  0  0  0  0  0  0  0  0
    7.2677  -11.5936   -2.3520 C   0  0  0  0  0  0  0  0  0  0  0  0
    7.8278  -11.6026   -1.0834 C   0  0  0  0  0  0  0  0  0  0  0  0
    8.0575  -10.4014   -0.4402 C   0  0  0  0  0  0  0  0  0  0  0  0
    7.7556   -9.2565   -1.0212 N   0  0  0  0  0  0  0  0  0  0  0  0
    4.0932   -1.6891   -5.0174 C   0  0  0  0  0  0  0  0  0  0  0  0
    3.5654   -1.4379   -6.2856 C   0  0  0  0  0  0  0  0  0  0  0  0
    4.2250   -0.5843   -7.1511 C   0  0  0  0  0  0  0  0  0  0  0  0
    5.4141    0.0237   -6.7592 C   0  0  0  0  0  0  0  0  0  0  0  0
    5.9422   -0.2251   -5.4957 C   0  0  0  0  0  0  0  0  0  0  0  0
    5.2834   -1.0734   -4.6244 C   0  0  0  0  0  0  0  0  0  0  0  0
    7.1045    0.3701   -5.1158 O   0  0  0  0  0  0  0  0  0  0  0  0
    7.5890    0.0699   -3.8054 C   0  0  0  0  0  0  0  0  0  0  0  0
    6.0613    0.8619   -7.6124 O   0  0  0  0  0  0  0  0  0  0  0  0
    5.7123    2.2463   -7.5511 C   0  0  0  0  0  0  0  0  0  0  0  0
    3.7116   -0.3392   -8.3864 O   0  0  0  0  0  0  0  0  0  0  0  0
    2.4884   -0.9971   -8.7228 C   0  0  0  0  0  0  0  0  0  0  0  0
    1.5130   -1.0143   -4.0162 C   0  0  0  0  0  0  0  0  0  0  0  0
    2.1102   -0.2523   -4.7522 O   0  0  0  0  0  0  0  0  0  0  0  0
    0.2758   -0.6995   -3.5797 O   0  0  0  0  0  0  0  0  0  0  0  0
   -0.2711    0.5445   -4.0217 C   0  0  0  0  0  0  0  0  0  0  0  0
   -2.6969   -7.1023   -3.7205 H   0  0  0  0  0  0  0  0  0  0  0  0
   -3.3060   -6.3477   -2.2278 H   0  0  0  0  0  0  0  0  0  0  0  0
   -4.2539   -6.2397   -3.7305 H   0  0  0  0  0  0  0  0  0  0  0  0
   -1.3233   -4.9876   -1.9033 H   0  0  0  0  0  0  0  0  0  0  0  0
   -0.7867   -1.7437   -4.6357 H   0  0  0  0  0  0  0  0  0  0  0  0
   -2.5246   -2.7427   -6.0657 H   0  0  0  0  0  0  0  0  0  0  0  0
    0.0621   -1.6226   -2.2634 H   0  0  0  0  0  0  0  0  0  0  0  0
   -0.0064   -3.0776   -1.2405 H   0  0  0  0  0  0  0  0  0  0  0  0
    5.8371   -3.6215   -4.8115 H   0  0  0  0  0  0  0  0  0  0  0  0
    6.7606   -5.7705   -4.0301 H   0  0  0  0  0  0  0  0  0  0  0  0
    5.0542   -7.9981   -1.7722 H   0  0  0  0  0  0  0  0  0  0  0  0
    6.8804   -7.9682   -3.9264 H   0  0  0  0  0  0  0  0  0  0  0  0
    7.6331   -7.1413   -2.5415 H   0  0  0  0  0  0  0  0  0  0  0  0
    6.5211  -10.3265   -3.9144 H   0  0  0  0  0  0  0  0  0  0  0  0
    7.0766  -12.5170   -2.8785 H   0  0  0  0  0  0  0  0  0  0  0  0
    8.0809  -12.5367   -0.6040 H   0  0  0  0  0  0  0  0  0  0  0  0
    8.4934  -10.3999    0.5479 H   0  0  0  0  0  0  0  0  0  0  0  0
    2.6432   -1.9100   -6.5905 H   0  0  0  0  0  0  0  0  0  0  0  0
    5.6912   -1.2627   -3.6425 H   0  0  0  0  0  0  0  0  0  0  0  0
    6.8486    0.3744   -3.0657 H   0  0  0  0  0  0  0  0  0  0  0  0
    7.7676   -1.0020   -3.7208 H   0  0  0  0  0  0  0  0  0  0  0  0
    8.5204    0.6084   -3.6302 H   0  0  0  0  0  0  0  0  0  0  0  0
    4.6517    2.3638   -7.7734 H   0  0  0  0  0  0  0  0  0  0  0  0
    5.9186    2.6291   -6.5516 H   0  0  0  0  0  0  0  0  0  0  0  0
    6.3003    2.8019   -8.2816 H   0  0  0  0  0  0  0  0  0  0  0  0
    1.7110   -0.7010   -8.0184 H   0  0  0  0  0  0  0  0  0  0  0  0
    2.1902   -0.7154   -9.7326 H   0  0  0  0  0  0  0  0  0  0  0  0
    2.6311   -2.0766   -8.6738 H   0  0  0  0  0  0  0  0  0  0  0  0
    0.3719    1.3612   -3.6935 H   0  0  0  0  0  0  0  0  0  0  0  0
   -0.3350    0.5472   -5.1098 H   0  0  0  0  0  0  0  0  0  0  0  0
   -1.2674    0.6741   -3.5989 H   0  0  0  0  0  0  0  0  0  0  0  0
   -3.5182   -4.7289   -5.3720 H   0  0  0  0  0  0  0  0  0  0  0  0
  1  2  1  0  0  0  0
  1 44  1  0  0  0  0
  1 45  1  0  0  0  0
  1 46  1  0  0  0  0
  2  7  2  0  0  0  0
  2  3  1  0  0  0  0
  3  4  2  0  0  0  0
  3 47  1  0  0  0  0
  4  5  1  0  0  0  0
  4  8  1  0  0  0  0
  5  6  2  0  0  0  0
  5 48  1  0  0  0  0
  6  7  1  0  0  0  0
  6 49  1  0  0  0  0
  7 75  1  0  0  0  0
  8  9  1  0  0  0  0
  8 50  1  0  0  0  0
  8 51  1  0  0  0  0
  9 18  1  0  0  0  0
  9 10  1  0  0  0  0
 10 11  2  0  0  0  0
 10 40  1  0  0  0  0
 11 12  1  0  0  0  0
 11 28  1  0  0  0  0
 12 17  2  0  0  0  0
 12 13  1  0  0  0  0
 13 14  2  0  0  0  0
 13 52  1  0  0  0  0
 14 15  1  0  0  0  0
 14 53  1  0  0  0  0
 15 16  2  0  0  0  0
 15 20  1  0  0  0  0
 16 17  1  0  0  0  0
 17 18  1  0  0  0  0
 18 19  2  0  0  0  0
 20 21  1  0  0  0  0
 20 54  1  0  0  0  0
 21 22  1  0  0  0  0
 21 55  1  0  0  0  0
 21 56  1  0  0  0  0
 22 27  2  0  0  0  0
 22 23  1  0  0  0  0
 23 24  2  0  0  0  0
 23 57  1  0  0  0  0
 24 25  1  0  0  0  0
 24 58  1  0  0  0  0
 25 26  2  0  0  0  0
 25 59  1  0  0  0  0
 26 27  1  0  0  0  0
 26 60  1  0  0  0  0
 28 33  2  0  0  0  0
 28 29  1  0  0  0  0
 29 30  2  0  0  0  0
 29 61  1  0  0  0  0
 30 31  1  0  0  0  0
 30 38  1  0  0  0  0
 31 32  2  0  0  0  0
 31 36  1  0  0  0  0
 32 33  1  0  0  0  0
 32 34  1  0  0  0  0
 33 62  1  0  0  0  0
 34 35  1  0  0  0  0
 35 63  1  0  0  0  0
 35 64  1  0  0  0  0
 35 65  1  0  0  0  0
 36 37  1  0  0  0  0
 37 66  1  0  0  0  0
 37 67  1  0  0  0  0
 37 68  1  0  0  0  0
 38 39  1  0  0  0  0
 39 69  1  0  0  0  0
 39 70  1  0  0  0  0
 39 71  1  0  0  0  0
 40 41  2  0  0  0  0
 40 42  1  0  0  0  0
 42 43  1  0  0  0  0
 43 72  1  0  0  0  0
 43 73  1  0  0  0  0
 43 74  1  0  0  0  0
M  CHG  1   7   1
M  END
$$$$
CHEMBL483655
  -OEChem-07121202283D

 53 57  0     1  0  0  0  0  0999 V2000
   -1.0657    1.3685    0.1839 C   0  0  0  0  0  0  0  0  0  0  0  0
   -1.0110   -0.1598    0.1353 C   0  0  0  0  0  0  0  0  0  0  0  0
   -0.1067   -0.5822   -0.9371 N   0  0  0  0  0  0  0  0  0  0  0  0
   -0.5794   -0.7850   -2.2033 C   0  0  0  0  0  0  0  0  0  0  0  0
   -1.7130   -0.4820   -2.5090 O   0  0  0  0  0  0  0  0  0  0  0  0
    0.3493   -1.3899   -3.1885 C   0  0  2  0  0  0  0  0  0  0  0  0
    1.7153   -0.6349   -3.0690 C   0  0  2  0  0  0  0  0  0  0  0  0
    2.3885   -1.1328   -4.2484 N   0  0  0  0  0  0  0  0  0  0  0  0
    1.4379   -1.4357   -5.1442 C   0  0  0  0  0  0  0  0  0  0  0  0
    0.1467   -1.2187   -4.6209 N   0  0  0  0  0  0  0  0  0  0  0  0
   -1.0902   -0.9009   -5.3387 C   0  0  0  0  0  0  0  0  0  0  0  0
   -1.8318   -2.1753   -5.6502 C   0  0  0  0  0  0  0  0  0  0  0  0
   -1.6682   -2.7862   -6.8797 C   0  0  0  0  0  0  0  0  0  0  0  0
   -2.3472   -3.9542   -7.1679 C   0  0  0  0  0  0  0  0  0  0  0  0
   -3.1936   -4.5145   -6.2221 C   0  0  0  0  0  0  0  0  0  0  0  0
   -3.3557   -3.8998   -4.9890 C   0  0  0  0  0  0  0  0  0  0  0  0
   -2.6704   -2.7347   -4.7039 C   0  0  0  0  0  0  0  0  0  0  0  0
   -3.8631   -5.6632   -6.5034 O   0  0  0  0  0  0  0  0  0  0  0  0
    1.6809   -1.8819   -6.3654 N   0  3  0  0  0  0  0  0  0  0  0  0
    2.7408   -2.0295   -6.7093 N   0  3  0  0  0  0  0  0  0  0  0  0
    3.7780   -2.1740   -7.0459 N   0  5  0  0  0  0  0  0  0  0  0  0
    2.1658   -0.9202   -1.7326 N   0  0  0  0  0  0  0  0  0  0  0  0
    1.2516   -0.7781   -0.6824 C   0  0  0  0  0  0  0  0  0  0  0  0
    1.8217   -0.8315    0.4722 N   0  3  0  0  0  0  0  0  0  0  0  0
    3.2784   -1.0323    0.3273 C   0  0  1  0  0  0  0  0  0  0  0  0
    3.6701   -1.8113    0.9814 H   0  0  0  0  0  0  0  0  0  0  0  0
    3.4231   -1.3808   -1.1773 C   0  0  2  0  0  0  0  0  0  0  0  0
    3.5605   -2.4500   -1.3387 H   0  0  0  0  0  0  0  0  0  0  0  0
    4.6212   -0.5718   -1.6769 C   0  0  0  0  0  0  0  0  0  0  0  0
    4.7690    0.6273   -0.7308 C   0  0  0  0  0  0  0  0  0  0  0  0
    3.9580    0.3312    0.5424 C   0  0  0  0  0  0  0  0  0  0  0  0
   -0.0672    1.7619    0.3745 H   0  0  0  0  0  0  0  0  0  0  0  0
   -1.4304    1.7495   -0.7700 H   0  0  0  0  0  0  0  0  0  0  0  0
   -1.7384    1.6828    0.9819 H   0  0  0  0  0  0  0  0  0  0  0  0
   -0.6463   -0.5408    1.0892 H   0  0  0  0  0  0  0  0  0  0  0  0
   -2.0095   -0.5532   -0.0552 H   0  0  0  0  0  0  0  0  0  0  0  0
    0.4917   -2.4462   -2.9602 H   0  0  0  0  0  0  0  0  0  0  0  0
    1.5489    0.4377   -3.1684 H   0  0  0  0  0  0  0  0  0  0  0  0
   -1.7156   -0.2590   -4.7184 H   0  0  0  0  0  0  0  0  0  0  0  0
   -0.8487   -0.3847   -6.2679 H   0  0  0  0  0  0  0  0  0  0  0  0
   -1.0092   -2.3496   -7.6156 H   0  0  0  0  0  0  0  0  0  0  0  0
   -2.2196   -4.4306   -8.1287 H   0  0  0  0  0  0  0  0  0  0  0  0
   -4.0141   -4.3340   -4.2511 H   0  0  0  0  0  0  0  0  0  0  0  0
   -2.7929   -2.2582   -3.7424 H   0  0  0  0  0  0  0  0  0  0  0  0
   -3.3834   -6.4673   -6.2615 H   0  0  0  0  0  0  0  0  0  0  0  0
    5.5228   -1.1835   -1.6474 H   0  0  0  0  0  0  0  0  0  0  0  0
    4.4387   -0.2243   -2.6938 H   0  0  0  0  0  0  0  0  0  0  0  0
    5.8184    0.7675   -0.4716 H   0  0  0  0  0  0  0  0  0  0  0  0
    4.3801    1.5264   -1.2087 H   0  0  0  0  0  0  0  0  0  0  0  0
    3.2013    1.0993    0.7028 H   0  0  0  0  0  0  0  0  0  0  0  0
    4.6214    0.2806    1.4058 H   0  0  0  0  0  0  0  0  0  0  0  0
    0.9444   -2.0818   -6.9642 H   0  0  0  0  0  0  0  0  0  0  0  0
    1.3580   -0.7506    1.3203 H   0  0  0  0  0  0  0  0  0  0  0  0
  1  2  1  0  0  0  0
  1 32  1  0  0  0  0
  1 33  1  0  0  0  0
  1 34  1  0  0  0  0
  2  3  1  0  0  0  0
  2 35  1  0  0  0  0
  2 36  1  0  0  0  0
  3 23  1  0  0  0  0
  3  4  1  0  0  0  0
  4  5  2  0  0  0  0
  4  6  1  0  0  0  0
  6 10  1  0  0  0  0
  6  7  1  0  0  0  0
  6 37  1  0  0  0  0
  7  8  1  0  0  0  0
  7 22  1  0  0  0  0
  7 38  1  0  0  0  0
  8  9  2  0  0  0  0
  9 10  1  0  0  0  0
  9 19  1  0  0  0  0
 10 11  1  0  0  0  0
 11 12  1  0  0  0  0
 11 39  1  0  0  0  0
 11 40  1  0  0  0  0
 12 17  2  0  0  0  0
 12 13  1  0  0  0  0
 13 14  2  0  0  0  0
 13 41  1  0  0  0  0
 14 15  1  0  0  0  0
 14 42  1  0  0  0  0
 15 16  2  0  0  0  0
 15 18  1  0  0  0  0
 16 17  1  0  0  0  0
 16 43  1  0  0  0  0
 17 44  1  0  0  0  0
 18 45  1  0  0  0  0
 19 20  2  0  0  0  0
 19 52  1  0  0  0  0
 20 21  2  0  0  0  0
 22 27  1  0  0  0  0
 22 23  1  0  0  0  0
 23 24  2  0  0  0  0
 24 25  1  0  0  0  0
 24 53  1  0  0  0  0
 25 26  1  0  0  0  0
 25 31  1  0  0  0  0
 25 27  1  0  0  0  0
 27 28  1  0  0  0  0
 27 29  1  0  0  0  0
 29 30  1  0  0  0  0
 29 46  1  0  0  0  0
 29 47  1  0  0  0  0
 30 31  1  0  0  0  0
 30 48  1  0  0  0  0
 30 49  1  0  0  0  0
 31 50  1  0  0  0  0
 31 51  1  0  0  0  0
M  CHG  4  19   1  20   1  21  -1  24   1
M  END
$$$$
CHEMBL483655
  -OEChem-07121202283D

 52 56  0     1  0  0  0  0  0999 V2000
    0.6587    1.3883    0.8310 C   0  0  0  0  0  0  0  0  0  0  0  0
    0.6277   -0.1413    0.8132 C   0  0  0  0  0  0  0  0  0  0  0  0
   -0.7421   -0.5991    0.5678 N   0  0  0  0  0  0  0  0  0  0  0  0
   -1.5971   -0.8198    1.6109 C   0  0  0  0  0  0  0  0  0  0  0  0
   -1.3030   -0.5053    2.7444 O   0  0  0  0  0  0  0  0  0  0  0  0
   -2.8991   -1.4587    1.3013 C   0  0  2  0  0  0  0  0  0  0  0  0
   -3.4972   -0.7228    0.0559 C   0  0  2  0  0  0  0  0  0  0  0  0
   -4.8422   -1.2546    0.0642 N   0  0  0  0  0  0  0  0  0  0  0  0
   -5.1352   -1.5605    1.3364 C   0  0  0  0  0  0  0  0  0  0  0  0
   -4.0423   -1.3130    2.1923 N   0  0  0  0  0  0  0  0  0  0  0  0
   -4.0537   -0.9904    3.6213 C   0  0  0  0  0  0  0  0  0  0  0  0
   -3.9208   -2.2591    4.4237 C   0  0  0  0  0  0  0  0  0  0  0  0
   -5.0518   -2.8968    4.8988 C   0  0  0  0  0  0  0  0  0  0  0  0
   -4.9326   -4.0597    5.6350 C   0  0  0  0  0  0  0  0  0  0  0  0
   -3.6768   -4.5877    5.8972 C   0  0  0  0  0  0  0  0  0  0  0  0
   -2.5435   -3.9461    5.4190 C   0  0  0  0  0  0  0  0  0  0  0  0
   -2.6683   -2.7863    4.6788 C   0  0  0  0  0  0  0  0  0  0  0  0
   -3.5569   -5.7312    6.6216 O   0  0  0  0  0  0  0  0  0  0  0  0
   -6.3028   -2.0348    1.7381 N   0  3  0  0  0  0  0  0  0  0  0  0
   -7.1265   -2.2057    0.9926 N   0  3  0  0  0  0  0  0  0  0  0  0
   -7.9326   -2.3730    0.2631 N   0  5  0  0  0  0  0  0  0  0  0  0
   -2.5580   -0.9883   -1.0014 N   0  0  0  0  0  0  0  0  0  0  0  0
   -1.1955   -0.8110   -0.7353 C   0  0  0  0  0  0  0  0  0  0  0  0
   -0.4794   -0.8502   -1.8060 N   0  0  0  0  0  0  0  0  0  0  0  0
   -1.3278   -1.0765   -2.9944 C   0  0  1  0  0  0  0  0  0  0  0  0
   -0.9376   -1.8483   -3.6580 H   0  0  0  0  0  0  0  0  0  0  0  0
   -2.6940   -1.4573   -2.3663 C   0  0  2  0  0  0  0  0  0  0  0  0
   -2.8755   -2.5315   -2.4009 H   0  0  0  0  0  0  0  0  0  0  0  0
   -3.7456   -0.6771   -3.1570 C   0  0  0  0  0  0  0  0  0  0  0  0
   -3.0304    0.5382   -3.7622 C   0  0  0  0  0  0  0  0  0  0  0  0
   -1.5153    0.2803   -3.6953 C   0  0  0  0  0  0  0  0  0  0  0  0
    1.6779    1.7289    1.0136 H   0  0  0  0  0  0  0  0  0  0  0  0
    0.3149    1.7698   -0.1304 H   0  0  0  0  0  0  0  0  0  0  0  0
    0.0055    1.7558    1.6224 H   0  0  0  0  0  0  0  0  0  0  0  0
    1.2809   -0.5088    0.0218 H   0  0  0  0  0  0  0  0  0  0  0  0
    0.9715   -0.5229    1.7746 H   0  0  0  0  0  0  0  0  0  0  0  0
   -2.7460   -2.5123    1.0675 H   0  0  0  0  0  0  0  0  0  0  0  0
   -3.5270    0.3501    0.2459 H   0  0  0  0  0  0  0  0  0  0  0  0
   -3.2202   -0.3265    3.8505 H   0  0  0  0  0  0  0  0  0  0  0  0
   -4.9918   -0.4967    3.8748 H   0  0  0  0  0  0  0  0  0  0  0  0
   -6.0292   -2.4854    4.6945 H   0  0  0  0  0  0  0  0  0  0  0  0
   -5.8163   -4.5571    6.0065 H   0  0  0  0  0  0  0  0  0  0  0  0
   -1.5647   -4.3551    5.6217 H   0  0  0  0  0  0  0  0  0  0  0  0
   -1.7866   -2.2888    4.3025 H   0  0  0  0  0  0  0  0  0  0  0  0
   -3.5669   -6.5377    6.0881 H   0  0  0  0  0  0  0  0  0  0  0  0
   -4.1553   -1.3021   -3.9504 H   0  0  0  0  0  0  0  0  0  0  0  0
   -4.5436   -0.3472   -2.4918 H   0  0  0  0  0  0  0  0  0  0  0  0
   -3.3339    0.6672   -4.8011 H   0  0  0  0  0  0  0  0  0  0  0  0
   -3.2724    1.4335   -3.1896 H   0  0  0  0  0  0  0  0  0  0  0  0
   -1.0176    1.0631   -3.1229 H   0  0  0  0  0  0  0  0  0  0  0  0
   -1.0980    0.2366   -4.7013 H   0  0  0  0  0  0  0  0  0  0  0  0
   -6.4482   -2.2351    2.6760 H   0  0  0  0  0  0  0  0  0  0  0  0
  1  2  1  0  0  0  0
  1 32  1  0  0  0  0
  1 33  1  0  0  0  0
  1 34  1  0  0  0  0
  2  3  1  0  0  0  0
  2 35  1  0  0  0  0
  2 36  1  0  0  0  0
  3 23  1  0  0  0  0
  3  4  1  0  0  0  0
  4  5  2  0  0  0  0
  4  6  1  0  0  0  0
  6 10  1  0  0  0  0
  6  7  1  0  0  0  0
  6 37  1  0  0  0  0
  7  8  1  0  0  0  0
  7 22  1  0  0  0  0
  7 38  1  0  0  0  0
  8  9  2  0  0  0  0
  9 10  1  0  0  0  0
  9 19  1  0  0  0  0
 10 11  1  0  0  0  0
 11 12  1  0  0  0  0
 11 39  1  0  0  0  0
 11 40  1  0  0  0  0
 12 17  2  0  0  0  0
 12 13  1  0  0  0  0
 13 14  2  0  0  0  0
 13 41  1  0  0  0  0
 14 15  1  0  0  0  0
 14 42  1  0  0  0  0
 15 16  2  0  0  0  0
 15 18  1  0  0  0  0
 16 17  1  0  0  0  0
 16 43  1  0  0  0  0
 17 44  1  0  0  0  0
 18 45  1  0  0  0  0
 19 20  2  0  0  0  0
 19 52  1  0  0  0  0
 20 21  2  0  0  0  0
 22 27  1  0  0  0  0
 22 23  1  0  0  0  0
 23 24  2  0  0  0  0
 24 25  1  0  0  0  0
 25 26  1  0  0  0  0
 25 31  1  0  0  0  0
 25 27  1  0  0  0  0
 27 28  1  0  0  0  0
 27 29  1  0  0  0  0
 29 30  1  0  0  0  0
 29 46  1  0  0  0  0
 29 47  1  0  0  0  0
 30 31  1  0  0  0  0
 30 48  1  0  0  0  0
 30 49  1  0  0  0  0
 31 50  1  0  0  0  0
 31 51  1  0  0  0  0
M  CHG  3  19   1  20   1  21  -1
M  END
$$$$
CHEMBL483655
  -OEChem-07121202283D

 53 57  0     1  0  0  0  0  0999 V2000
    0.2696    1.7449   -0.0151 C   0  0  0  0  0  0  0  0  0  0  0  0
    0.2535    0.2159    0.0380 C   0  0  0  0  0  0  0  0  0  0  0  0
    0.7579   -0.3220   -1.2279 N   0  0  0  0  0  0  0  0  0  0  0  0
   -0.0626   -0.5043   -2.2728 C   0  0  0  0  0  0  0  0  0  0  0  0
   -1.2468   -0.3199   -2.0887 O   0  0  0  0  0  0  0  0  0  0  0  0
    0.3592   -0.9131   -3.6375 C   0  0  2  0  0  0  0  0  0  0  0  0
    1.7612   -1.5300   -3.7145 C   0  0  1  0  0  0  0  0  0  0  0  0
    2.3204   -0.9515   -4.9510 N   0  0  0  0  0  0  0  0  0  0  0  0
    1.5290    0.0063   -5.3862 C   0  0  0  0  0  0  0  0  0  0  0  0
    0.4647    0.2531   -4.5332 N   0  0  0  0  0  0  0  0  0  0  0  0
   -0.3905    1.4426   -4.5241 C   0  0  0  0  0  0  0  0  0  0  0  0
   -1.5774    1.2149   -5.4244 C   0  0  0  0  0  0  0  0  0  0  0  0
   -1.5455    1.6581   -6.7336 C   0  0  0  0  0  0  0  0  0  0  0  0
   -2.6324    1.4510   -7.5608 C   0  0  0  0  0  0  0  0  0  0  0  0
   -3.7563    0.7972   -7.0769 C   0  0  0  0  0  0  0  0  0  0  0  0
   -3.7855    0.3531   -5.7629 C   0  0  0  0  0  0  0  0  0  0  0  0
   -2.6941    0.5580   -4.9413 C   0  0  0  0  0  0  0  0  0  0  0  0
   -4.8269    0.5927   -7.8885 O   0  0  0  0  0  0  0  0  0  0  0  0
    1.7287    0.6636   -6.5166 N   0  3  0  0  0  0  0  0  0  0  0  0
    2.6133    0.4137   -7.1633 N   0  3  0  0  0  0  0  0  0  0  0  0
    3.4791    0.1691   -7.7962 N   0  5  0  0  0  0  0  0  0  0  0  0
    2.5830   -1.1096   -2.5847 N   0  0  0  0  0  0  0  0  0  0  0  0
    2.1015   -0.6512   -1.3780 C   0  0  0  0  0  0  0  0  0  0  0  0
    3.0046   -0.6079   -0.4518 N   0  3  0  0  0  0  0  0  0  0  0  0
    4.2992   -1.0247   -0.9971 C   0  0  1  0  0  0  0  0  0  0  0  0
    4.5961   -2.0025   -0.6180 H   0  0  0  0  0  0  0  0  0  0  0  0
    4.0568   -1.0668   -2.5241 C   0  0  2  0  0  0  0  0  0  0  0  0
    4.5354   -1.9089   -3.0241 H   0  0  0  0  0  0  0  0  0  0  0  0
    4.5106    0.3072   -3.0462 C   0  0  0  0  0  0  0  0  0  0  0  0
    5.3100    0.9922   -1.9321 C   0  0  0  0  0  0  0  0  0  0  0  0
    5.3826    0.0264   -0.7439 C   0  0  0  0  0  0  0  0  0  0  0  0
    1.2991    2.0950   -0.0902 H   0  0  0  0  0  0  0  0  0  0  0  0
   -0.2940    2.0842   -0.8842 H   0  0  0  0  0  0  0  0  0  0  0  0
   -0.1849    2.1447    0.8914 H   0  0  0  0  0  0  0  0  0  0  0  0
    0.8874   -0.1259    0.8563 H   0  0  0  0  0  0  0  0  0  0  0  0
   -0.7670   -0.1314    0.1995 H   0  0  0  0  0  0  0  0  0  0  0  0
   -0.3616   -1.6219   -4.0453 H   0  0  0  0  0  0  0  0  0  0  0  0
    1.7057   -2.6165   -3.7823 H   0  0  0  0  0  0  0  0  0  0  0  0
   -0.7364    1.6335   -3.5082 H   0  0  0  0  0  0  0  0  0  0  0  0
    0.1776    2.3013   -4.8819 H   0  0  0  0  0  0  0  0  0  0  0  0
   -0.6704    2.1670   -7.1099 H   0  0  0  0  0  0  0  0  0  0  0  0
   -2.6073    1.7980   -8.5832 H   0  0  0  0  0  0  0  0  0  0  0  0
   -4.6593   -0.1561   -5.3839 H   0  0  0  0  0  0  0  0  0  0  0  0
   -2.7146    0.2086   -3.9196 H   0  0  0  0  0  0  0  0  0  0  0  0
   -4.7960   -0.2408   -8.3779 H   0  0  0  0  0  0  0  0  0  0  0  0
    5.1404    0.1780   -3.9264 H   0  0  0  0  0  0  0  0  0  0  0  0
    3.6397    0.9114   -3.3004 H   0  0  0  0  0  0  0  0  0  0  0  0
    6.3163    1.2195   -2.2841 H   0  0  0  0  0  0  0  0  0  0  0  0
    4.8069    1.9090   -1.6249 H   0  0  0  0  0  0  0  0  0  0  0  0
    5.1873    0.5452    0.1946 H   0  0  0  0  0  0  0  0  0  0  0  0
    6.3631   -0.4485   -0.7114 H   0  0  0  0  0  0  0  0  0  0  0  0
    1.1116    1.3613   -6.7874 H   0  0  0  0  0  0  0  0  0  0  0  0
    2.8478   -0.3389    0.4668 H   0  0  0  0  0  0  0  0  0  0  0  0
  1  2  1  0  0  0  0
  1 32  1  0  0  0  0
  1 33  1  0  0  0  0
  1 34  1  0  0  0  0
  2  3  1  0  0  0  0
  2 35  1  0  0  0  0
  2 36  1  0  0  0  0
  3 23  1  0  0  0  0
  3  4  1  0  0  0  0
  4  5  2  0  0  0  0
  4  6  1  0  0  0  0
  6 10  1  0  0  0  0
  6  7  1  0  0  0  0
  6 37  1  0  0  0  0
  7  8  1  0  0  0  0
  7 22  1  0  0  0  0
  7 38  1  0  0  0  0
  8  9  2  0  0  0  0
  9 10  1  0  0  0  0
  9 19  1  0  0  0  0
 10 11  1  0  0  0  0
 11 12  1  0  0  0  0
 11 39  1  0  0  0  0
 11 40  1  0  0  0  0
 12 17  2  0  0  0  0
 12 13  1  0  0  0  0
 13 14  2  0  0  0  0
 13 41  1  0  0  0  0
 14 15  1  0  0  0  0
 14 42  1  0  0  0  0
 15 16  2  0  0  0  0
 15 18  1  0  0  0  0
 16 17  1  0  0  0  0
 16 43  1  0  0  0  0
 17 44  1  0  0  0  0
 18 45  1  0  0  0  0
 19 20  2  0  0  0  0
 19 52  1  0  0  0  0
 20 21  2  0  0  0  0
 22 27  1  0  0  0  0
 22 23  1  0  0  0  0
 23 24  2  0  0  0  0
 24 25  1  0  0  0  0
 24 53  1  0  0  0  0
 25 26  1  0  0  0  0
 25 31  1  0  0  0  0
 25 27  1  0  0  0  0
 27 28  1  0  0  0  0
 27 29  1  0  0  0  0
 29 30  1  0  0  0  0
 29 46  1  0  0  0  0
 29 47  1  0  0  0  0
 30 31  1  0  0  0  0
 30 48  1  0  0  0  0
 30 49  1  0  0  0  0
 31 50  1  0  0  0  0
 31 51  1  0  0  0  0
M  CHG  4  19   1  20   1  21  -1  24   1
M  END
$$$$
CHEMBL483655
  -OEChem-07121202283D

 52 56  0     1  0  0  0  0  0999 V2000
   -0.1845    1.7335   -0.2077 C   0  0  0  0  0  0  0  0  0  0  0  0
   -0.0968    0.2062   -0.2305 C   0  0  0  0  0  0  0  0  0  0  0  0
   -1.4325   -0.3626   -0.0338 N   0  0  0  0  0  0  0  0  0  0  0  0
   -1.9241   -0.5518    1.1995 C   0  0  0  0  0  0  0  0  0  0  0  0
   -1.1782   -0.3462    2.1330 O   0  0  0  0  0  0  0  0  0  0  0  0
   -3.3072   -0.9922    1.5167 C   0  0  2  0  0  0  0  0  0  0  0  0
   -4.0588   -1.6314    0.3425 C   0  0  1  0  0  0  0  0  0  0  0  0
   -5.4226   -1.0844    0.4728 N   0  0  0  0  0  0  0  0  0  0  0  0
   -5.4275   -0.1230    1.3722 C   0  0  0  0  0  0  0  0  0  0  0  0
   -4.1634    0.1556    1.8678 N   0  0  0  0  0  0  0  0  0  0  0  0
   -3.7568    1.3577    2.5998 C   0  0  0  0  0  0  0  0  0  0  0  0
   -3.9375    1.1306    4.0786 C   0  0  0  0  0  0  0  0  0  0  0  0
   -5.0981    1.5470    4.7040 C   0  0  0  0  0  0  0  0  0  0  0  0
   -5.2660    1.3404    6.0596 C   0  0  0  0  0  0  0  0  0  0  0  0
   -4.2690    0.7140    6.7933 C   0  0  0  0  0  0  0  0  0  0  0  0
   -3.1056    0.2967    6.1632 C   0  0  0  0  0  0  0  0  0  0  0  0
   -2.9448    0.5010    4.8065 C   0  0  0  0  0  0  0  0  0  0  0  0
   -4.4315    0.5100    8.1270 O   0  0  0  0  0  0  0  0  0  0  0  0
   -6.5219    0.5102    1.7608 N   0  3  0  0  0  0  0  0  0  0  0  0
   -7.5176    0.2350    1.3179 N   0  3  0  0  0  0  0  0  0  0  0  0
   -8.4921   -0.0343    0.8845 N   0  5  0  0  0  0  0  0  0  0  0  0
   -3.4999   -1.2026   -0.9351 N   0  0  0  0  0  0  0  0  0  0  0  0
   -2.2250   -0.7147   -1.1218 C   0  0  0  0  0  0  0  0  0  0  0  0
   -1.8742   -0.6678   -2.3668 N   0  0  0  0  0  0  0  0  0  0  0  0
   -2.9826   -1.1141   -3.2150 C   0  0  1  0  0  0  0  0  0  0  0  0
   -2.7792   -2.0891   -3.6577 H   0  0  0  0  0  0  0  0  0  0  0  0
   -4.1836   -1.1809   -2.2427 C   0  0  2  0  0  0  0  0  0  0  0  0
   -4.8357   -2.0392   -2.4046 H   0  0  0  0  0  0  0  0  0  0  0  0
   -4.8947    0.1763   -2.3805 C   0  0  0  0  0  0  0  0  0  0  0  0
   -4.3445    0.8696   -3.6319 C   0  0  0  0  0  0  0  0  0  0  0  0
   -3.3285   -0.0749   -4.2841 C   0  0  0  0  0  0  0  0  0  0  0  0
    0.8185    2.1560   -0.2677 H   0  0  0  0  0  0  0  0  0  0  0  0
   -0.7746    2.0764   -1.0576 H   0  0  0  0  0  0  0  0  0  0  0  0
   -0.6598    2.0564    0.7186 H   0  0  0  0  0  0  0  0  0  0  0  0
    0.2993   -0.1206   -1.1920 H   0  0  0  0  0  0  0  0  0  0  0  0
    0.5633   -0.1318    0.5683 H   0  0  0  0  0  0  0  0  0  0  0  0
   -3.2842   -1.6974    2.3475 H   0  0  0  0  0  0  0  0  0  0  0  0
   -4.0642   -2.7180    0.4286 H   0  0  0  0  0  0  0  0  0  0  0  0
   -2.7091    1.5735    2.3907 H   0  0  0  0  0  0  0  0  0  0  0  0
   -4.3714    2.2007    2.2839 H   0  0  0  0  0  0  0  0  0  0  0  0
   -5.8740    2.0346    4.1324 H   0  0  0  0  0  0  0  0  0  0  0  0
   -6.1725    1.6665    6.5478 H   0  0  0  0  0  0  0  0  0  0  0  0
   -2.3279   -0.1911    6.7322 H   0  0  0  0  0  0  0  0  0  0  0  0
   -2.0411    0.1724    4.3147 H   0  0  0  0  0  0  0  0  0  0  0  0
   -4.8498   -0.3335    8.3477 H   0  0  0  0  0  0  0  0  0  0  0  0
   -5.9684    0.0213   -2.4864 H   0  0  0  0  0  0  0  0  0  0  0  0
   -4.6947    0.7887   -1.5012 H   0  0  0  0  0  0  0  0  0  0  0  0
   -5.1568    1.0752   -4.3290 H   0  0  0  0  0  0  0  0  0  0  0  0
   -3.8490    1.7995   -3.3527 H   0  0  0  0  0  0  0  0  0  0  0  0
   -2.4302    0.4641   -4.5852 H   0  0  0  0  0  0  0  0  0  0  0  0
   -3.7783   -0.5639   -5.1482 H   0  0  0  0  0  0  0  0  0  0  0  0
   -6.4651    1.2119    2.4280 H   0  0  0  0  0  0  0  0  0  0  0  0
  1  2  1  0  0  0  0
  1 32  1  0  0  0  0
  1 33  1  0  0  0  0
  1 34  1  0  0  0  0
  2  3  1  0  0  0  0
  2 35  1  0  0  0  0
  2 36  1  0  0  0  0
  3 23  1  0  0  0  0
  3  4  1  0  0  0  0
  4  5  2  0  0  0  0
  4  6  1  0  0  0  0
  6 10  1  0  0  0  0
  6  7  1  0  0  0  0
  6 37  1  0  0  0  0
  7  8  1  0  0  0  0
  7 22  1  0  0  0  0
  7 38  1  0  0  0  0
  8  9  2  0  0  0  0
  9 10  1  0  0  0  0
  9 19  1  0  0  0  0
 10 11  1  0  0  0  0
 11 12  1  0  0  0  0
 11 39  1  0  0  0  0
 11 40  1  0  0  0  0
 12 17  2  0  0  0  0
 12 13  1  0  0  0  0
 13 14  2  0  0  0  0
 13 41  1  0  0  0  0
 14 15  1  0  0  0  0
 14 42  1  0  0  0  0
 15 16  2  0  0  0  0
 15 18  1  0  0  0  0
 16 17  1  0  0  0  0
 16 43  1  0  0  0  0
 17 44  1  0  0  0  0
 18 45  1  0  0  0  0
 19 20  2  0  0  0  0
 19 52  1  0  0  0  0
 20 21  2  0  0  0  0
 22 27  1  0  0  0  0
 22 23  1  0  0  0  0
 23 24  2  0  0  0  0
 24 25  1  0  0  0  0
 25 26  1  0  0  0  0
 25 31  1  0  0  0  0
 25 27  1  0  0  0  0
 27 28  1  0  0  0  0
 27 29  1  0  0  0  0
 29 30  1  0  0  0  0
 29 46  1  0  0  0  0
 29 47  1  0  0  0  0
 30 31  1  0  0  0  0
 30 48  1  0  0  0  0
 30 49  1  0  0  0  0
 31 50  1  0  0  0  0
 31 51  1  0  0  0  0
M  CHG  3  19   1  20   1  21  -1
M  END
$$$$
CHEMBL483655
  -OEChem-07121202283D

 53 57  0     1  0  0  0  0  0999 V2000
   -0.0187    1.5258    0.0104 C   0  0  0  0  0  0  0  0  0  0  0  0
    0.0021   -0.0041    0.0020 C   0  0  0  0  0  0  0  0  0  0  0  0
    0.6878   -0.4765   -1.2033 N   0  0  0  0  0  0  0  0  0  0  0  0
    0.0057   -0.7020   -2.3335 C   0  0  0  0  0  0  0  0  0  0  0  0
   -1.2023   -0.6120   -2.2793 O   0  0  0  0  0  0  0  0  0  0  0  0
    0.6048   -1.0542   -3.6538 C   0  0  1  0  0  0  0  0  0  0  0  0
    2.0562   -1.5424   -3.5647 C   0  0  2  0  0  0  0  0  0  0  0  0
    1.9399   -3.0065   -3.5815 N   0  0  0  0  0  0  0  0  0  0  0  0
    0.7041   -3.3423   -3.8921 C   0  0  0  0  0  0  0  0  0  0  0  0
   -0.0892   -2.2469   -4.1927 N   0  0  0  0  0  0  0  0  0  0  0  0
   -1.3686   -2.2647   -4.9062 C   0  0  0  0  0  0  0  0  0  0  0  0
   -1.1212   -2.1125   -6.3849 C   0  0  0  0  0  0  0  0  0  0  0  0
   -1.0800   -0.8520   -6.9516 C   0  0  0  0  0  0  0  0  0  0  0  0
   -0.8539   -0.7099   -8.3070 C   0  0  0  0  0  0  0  0  0  0  0  0
   -0.6676   -1.8332   -9.0996 C   0  0  0  0  0  0  0  0  0  0  0  0
   -0.7090   -3.0968   -8.5284 C   0  0  0  0  0  0  0  0  0  0  0  0
   -0.9303   -3.2334   -7.1717 C   0  0  0  0  0  0  0  0  0  0  0  0
   -0.4454   -1.6960  -10.4332 O   0  0  0  0  0  0  0  0  0  0  0  0
    0.2681   -4.5909   -3.9153 N   0  3  0  0  0  0  0  0  0  0  0  0
    0.9658   -5.4346   -3.6605 N   0  3  0  0  0  0  0  0  0  0  0  0
    1.6485   -6.2602   -3.4111 N   0  5  0  0  0  0  0  0  0  0  0  0
    2.7112   -1.0837   -2.3519 N   0  0  0  0  0  0  0  0  0  0  0  0
    2.0615   -0.6945   -1.1989 C   0  0  0  0  0  0  0  0  0  0  0  0
    2.8476   -0.6054   -0.1754 N   0  3  0  0  0  0  0  0  0  0  0  0
    4.2252   -0.9029   -0.5764 C   0  0  1  0  0  0  0  0  0  0  0  0
    4.5565   -1.8648   -0.1851 H   0  0  0  0  0  0  0  0  0  0  0  0
    4.1596   -0.9185   -2.1219 C   0  0  2  0  0  0  0  0  0  0  0  0
    4.7626   -1.7021   -2.5807 H   0  0  0  0  0  0  0  0  0  0  0  0
    4.5490    0.5036   -2.5605 C   0  0  0  0  0  0  0  0  0  0  0  0
    5.1609    1.2173   -1.3497 C   0  0  0  0  0  0  0  0  0  0  0  0
    5.1832    0.2233   -0.1806 C   0  0  0  0  0  0  0  0  0  0  0  0
    1.0039    1.9031    0.0027 H   0  0  0  0  0  0  0  0  0  0  0  0
   -0.5459    1.8868   -0.8726 H   0  0  0  0  0  0  0  0  0  0  0  0
   -0.5289    1.8773    0.9072 H   0  0  0  0  0  0  0  0  0  0  0  0
    0.5293   -0.3651    0.8851 H   0  0  0  0  0  0  0  0  0  0  0  0
   -1.0205   -0.3814    0.0098 H   0  0  0  0  0  0  0  0  0  0  0  0
    0.5156   -0.2168   -4.3459 H   0  0  0  0  0  0  0  0  0  0  0  0
    2.6137   -1.2059   -4.4388 H   0  0  0  0  0  0  0  0  0  0  0  0
   -1.8763   -3.2108   -4.7182 H   0  0  0  0  0  0  0  0  0  0  0  0
   -1.9917   -1.4420   -4.5555 H   0  0  0  0  0  0  0  0  0  0  0  0
   -1.2251    0.0221   -6.3342 H   0  0  0  0  0  0  0  0  0  0  0  0
   -0.8225    0.2749   -8.7493 H   0  0  0  0  0  0  0  0  0  0  0  0
   -0.5643   -3.9728   -9.1433 H   0  0  0  0  0  0  0  0  0  0  0  0
   -0.9582   -4.2167   -6.7258 H   0  0  0  0  0  0  0  0  0  0  0  0
    0.4888   -1.6171  -10.6703 H   0  0  0  0  0  0  0  0  0  0  0  0
    5.2798    0.4538   -3.3677 H   0  0  0  0  0  0  0  0  0  0  0  0
    3.6628    1.0417   -2.8971 H   0  0  0  0  0  0  0  0  0  0  0  0
    6.1772    1.5358   -1.5819 H   0  0  0  0  0  0  0  0  0  0  0  0
    4.5520    2.0807   -1.0818 H   0  0  0  0  0  0  0  0  0  0  0  0
    4.8433    0.6959    0.7410 H   0  0  0  0  0  0  0  0  0  0  0  0
    6.1902   -0.1723   -0.0484 H   0  0  0  0  0  0  0  0  0  0  0  0
   -0.6536   -4.7785   -4.1522 H   0  0  0  0  0  0  0  0  0  0  0  0
    2.5667   -0.3756    0.7242 H   0  0  0  0  0  0  0  0  0  0  0  0
  1  2  1  0  0  0  0
  1 32  1  0  0  0  0
  1 33  1  0  0  0  0
  1 34  1  0  0  0  0
  2  3  1  0  0  0  0
  2 35  1  0  0  0  0
  2 36  1  0  0  0  0
  3 23  1  0  0  0  0
  3  4  1  0  0  0  0
  4  5  2  0  0  0  0
  4  6  1  0  0  0  0
  6 10  1  0  0  0  0
  6  7  1  0  0  0  0
  6 37  1  0  0  0  0
  7  8  1  0  0  0  0
  7 22  1  0  0  0  0
  7 38  1  0  0  0  0
  8  9  2  0  0  0  0
  9 10  1  0  0  0  0
  9 19  1  0  0  0  0
 10 11  1  0  0  0  0
 11 12  1  0  0  0  0
 11 39  1  0  0  0  0
 11 40  1  0  0  0  0
 12 17  2  0  0  0  0
 12 13  1  0  0  0  0
 13 14  2  0  0  0  0
 13 41  1  0  0  0  0
 14 15  1  0  0  0  0
 14 42  1  0  0  0  0
 15 16  2  0  0  0  0
 15 18  1  0  0  0  0
 16 17  1  0  0  0  0
 16 43  1  0  0  0  0
 17 44  1  0  0  0  0
 18 45  1  0  0  0  0
 19 20  2  0  0  0  0
 19 52  1  0  0  0  0
 20 21  2  0  0  0  0
 22 27  1  0  0  0  0
 22 23  1  0  0  0  0
 23 24  2  0  0  0  0
 24 25  1  0  0  0  0
 24 53  1  0  0  0  0
 25 26  1  0  0  0  0
 25 31  1  0  0  0  0
 25 27  1  0  0  0  0
 27 28  1  0  0  0  0
 27 29  1  0  0  0  0
 29 30  1  0  0  0  0
 29 46  1  0  0  0  0
 29 47  1  0  0  0  0
 30 31  1  0  0  0  0
 30 48  1  0  0  0  0
 30 49  1  0  0  0  0
 31 50  1  0  0  0  0
 31 51  1  0  0  0  0
M  CHG  4  19   1  20   1  21  -1  24   1
M  END
$$$$
CHEMBL483655
  -OEChem-07121202283D

 52 56  0     1  0  0  0  0  0999 V2000
   -0.0187    1.5258    0.0104 C   0  0  0  0  0  0  0  0  0  0  0  0
    0.0021   -0.0041    0.0020 C   0  0  0  0  0  0  0  0  0  0  0  0
   -1.3723   -0.5112    0.0124 N   0  0  0  0  0  0  0  0  0  0  0  0
   -2.0043   -0.7486    1.1690 C   0  0  0  0  0  0  0  0  0  0  0  0
   -1.3560   -0.6386    2.1877 O   0  0  0  0  0  0  0  0  0  0  0  0
   -3.4381   -1.1363    1.3115 C   0  0  1  0  0  0  0  0  0  0  0  0
   -4.0739   -1.6452    0.0116 C   0  0  2  0  0  0  0  0  0  0  0  0
   -3.9936   -3.1073    0.1258 N   0  0  0  0  0  0  0  0  0  0  0  0
   -3.6366   -3.4300    1.3526 C   0  0  0  0  0  0  0  0  0  0  0  0
   -3.5278   -2.3286    2.1861 N   0  0  0  0  0  0  0  0  0  0  0  0
   -3.5058   -2.3408    3.6509 C   0  0  0  0  0  0  0  0  0  0  0  0
   -4.9136   -2.2221    4.1754 C   0  0  0  0  0  0  0  0  0  0  0  0
   -5.4565   -0.9739    4.4186 C   0  0  0  0  0  0  0  0  0  0  0  0
   -6.7466   -0.8624    4.8999 C   0  0  0  0  0  0  0  0  0  0  0  0
   -7.4977   -2.0041    5.1388 C   0  0  0  0  0  0  0  0  0  0  0  0
   -6.9508   -3.2553    4.8935 C   0  0  0  0  0  0  0  0  0  0  0  0
   -5.6621   -3.3613    4.4073 C   0  0  0  0  0  0  0  0  0  0  0  0
   -8.7669   -1.8971    5.6126 O   0  0  0  0  0  0  0  0  0  0  0  0
   -3.4074   -4.6719    1.7461 N   0  3  0  0  0  0  0  0  0  0  0  0
   -3.5142   -5.5210    1.0175 N   0  3  0  0  0  0  0  0  0  0  0  0
   -3.6188   -6.3521    0.3044 N   0  5  0  0  0  0  0  0  0  0  0  0
   -3.3627   -1.1726   -1.1636 N   0  0  0  0  0  0  0  0  0  0  0  0
   -2.0495   -0.7504   -1.1787 C   0  0  0  0  0  0  0  0  0  0  0  0
   -1.5584   -0.6530   -2.3715 N   0  0  0  0  0  0  0  0  0  0  0  0
   -2.5865   -0.9800   -3.3631 C   0  0  1  0  0  0  0  0  0  0  0  0
   -2.3892   -1.9389   -3.8423 H   0  0  0  0  0  0  0  0  0  0  0  0
   -3.8915   -1.0254   -2.5335 C   0  0  2  0  0  0  0  0  0  0  0  0
   -4.5704   -1.8273   -2.8237 H   0  0  0  0  0  0  0  0  0  0  0  0
   -4.5016    0.3814   -2.6564 C   0  0  0  0  0  0  0  0  0  0  0  0
   -3.7770    1.1095   -3.7942 C   0  0  0  0  0  0  0  0  0  0  0  0
   -2.7508    0.1389   -4.3945 C   0  0  0  0  0  0  0  0  0  0  0  0
    1.0039    1.9031    0.0027 H   0  0  0  0  0  0  0  0  0  0  0  0
   -0.5459    1.8868   -0.8726 H   0  0  0  0  0  0  0  0  0  0  0  0
   -0.5289    1.8773    0.9072 H   0  0  0  0  0  0  0  0  0  0  0  0
    0.5123   -0.3556   -0.8948 H   0  0  0  0  0  0  0  0  0  0  0  0
    0.5293   -0.3651    0.8851 H   0  0  0  0  0  0  0  0  0  0  0  0
   -4.0137   -0.3117    1.7318 H   0  0  0  0  0  0  0  0  0  0  0  0
   -5.1178   -1.3350   -0.0354 H   0  0  0  0  0  0  0  0  0  0  0  0
   -3.0656   -3.2748    3.9999 H   0  0  0  0  0  0  0  0  0  0  0  0
   -2.9115   -1.5016    4.0123 H   0  0  0  0  0  0  0  0  0  0  0  0
   -4.8714   -0.0855    4.2325 H   0  0  0  0  0  0  0  0  0  0  0  0
   -7.1700    0.1127    5.0904 H   0  0  0  0  0  0  0  0  0  0  0  0
   -7.5335   -4.1456    5.0787 H   0  0  0  0  0  0  0  0  0  0  0  0
   -5.2374   -4.3349    4.2120 H   0  0  0  0  0  0  0  0  0  0  0  0
   -9.4409   -1.8376    4.9218 H   0  0  0  0  0  0  0  0  0  0  0  0
   -5.5644    0.3041   -2.8856 H   0  0  0  0  0  0  0  0  0  0  0  0
   -4.3636    0.9264   -1.7226 H   0  0  0  0  0  0  0  0  0  0  0  0
   -4.4938    1.4074   -4.5594 H   0  0  0  0  0  0  0  0  0  0  0  0
   -3.2624    1.9875   -3.4039 H   0  0  0  0  0  0  0  0  0  0  0  0
   -1.7949    0.6350   -4.5627 H   0  0  0  0  0  0  0  0  0  0  0  0
   -3.1297   -0.2697   -5.3314 H   0  0  0  0  0  0  0  0  0  0  0  0
   -3.1472   -4.8498    2.6635 H   0  0  0  0  0  0  0  0  0  0  0  0
  1  2  1  0  0  0  0
  1 32  1  0  0  0  0
  1 33  1  0  0  0  0
  1 34  1  0  0  0  0
  2  3  1  0  0  0  0
  2 35  1  0  0  0  0
  2 36  1  0  0  0  0
  3 23  1  0  0  0  0
  3  4  1  0  0  0  0
  4  5  2  0  0  0  0
  4  6  1  0  0  0  0
  6 10  1  0  0  0  0
  6  7  1  0  0  0  0
  6 37  1  0  0  0  0
  7  8  1  0  0  0  0
  7 22  1  0  0  0  0
  7 38  1  0  0  0  0
  8  9  2  0  0  0  0
  9 10  1  0  0  0  0
  9 19  1  0  0  0  0
 10 11  1  0  0  0  0
 11 12  1  0  0  0  0
 11 39  1  0  0  0  0
 11 40  1  0  0  0  0
 12 17  2  0  0  0  0
 12 13  1  0  0  0  0
 13 14  2  0  0  0  0
 13 41  1  0  0  0  0
 14 15  1  0  0  0  0
 14 42  1  0  0  0  0
 15 16  2  0  0  0  0
 15 18  1  0  0  0  0
 16 17  1  0  0  0  0
 16 43  1  0  0  0  0
 17 44  1  0  0  0  0
 18 45  1  0  0  0  0
 19 20  2  0  0  0  0
 19 52  1  0  0  0  0
 20 21  2  0  0  0  0
 22 27  1  0  0  0  0
 22 23  1  0  0  0  0
 23 24  2  0  0  0  0
 24 25  1  0  0  0  0
 25 26  1  0  0  0  0
 25 31  1  0  0  0  0
 25 27  1  0  0  0  0
 27 28  1  0  0  0  0
 27 29  1  0  0  0  0
 29 30  1  0  0  0  0
 29 46  1  0  0  0  0
 29 47  1  0  0  0  0
 30 31  1  0  0  0  0
 30 48  1  0  0  0  0
 30 49  1  0  0  0  0
 31 50  1  0  0  0  0
 31 51  1  0  0  0  0
M  CHG  3  19   1  20   1  21  -1
M  END
$$$$
CHEMBL483655
  -OEChem-07121202283D

 53 57  0     1  0  0  0  0  0999 V2000
   -0.0187    1.5258    0.0104 C   0  0  0  0  0  0  0  0  0  0  0  0
    0.0021   -0.0041    0.0020 C   0  0  0  0  0  0  0  0  0  0  0  0
    0.6878   -0.4765   -1.2033 N   0  0  0  0  0  0  0  0  0  0  0  0
   -0.0114   -0.7058   -2.3552 C   0  0  0  0  0  0  0  0  0  0  0  0
   -1.2232   -0.6695   -2.3751 O   0  0  0  0  0  0  0  0  0  0  0  0
    0.7716   -1.0014   -3.5800 C   0  0  1  0  0  0  0  0  0  0  0  0
    1.8512   -2.0686   -3.1983 C   0  0  1  0  0  0  0  0  0  0  0  0
    2.3169   -2.4476   -4.5136 N   0  0  0  0  0  0  0  0  0  0  0  0
    1.2969   -2.2515   -5.3619 C   0  0  0  0  0  0  0  0  0  0  0  0
    0.1735   -1.7113   -4.7031 N   0  0  0  0  0  0  0  0  0  0  0  0
   -1.2424   -1.8337   -5.0588 C   0  0  0  0  0  0  0  0  0  0  0  0
   -1.6298   -0.7017   -5.9751 C   0  0  0  0  0  0  0  0  0  0  0  0
   -2.0982    0.4862   -5.4446 C   0  0  0  0  0  0  0  0  0  0  0  0
   -2.4544    1.5252   -6.2824 C   0  0  0  0  0  0  0  0  0  0  0  0
   -2.3413    1.3763   -7.6570 C   0  0  0  0  0  0  0  0  0  0  0  0
   -1.8707    0.1836   -8.1868 C   0  0  0  0  0  0  0  0  0  0  0  0
   -1.5109   -0.8506   -7.3445 C   0  0  0  0  0  0  0  0  0  0  0  0
   -2.6915    2.3968   -8.4833 O   0  0  0  0  0  0  0  0  0  0  0  0
    1.3393   -2.5300   -6.6543 N   0  3  0  0  0  0  0  0  0  0  0  0
    2.2743   -2.9604   -7.1061 N   0  3  0  0  0  0  0  0  0  0  0  0
    3.1892   -3.3816   -7.5481 N   0  5  0  0  0  0  0  0  0  0  0  0
    2.6839   -1.4069   -2.2304 N   0  0  0  0  0  0  0  0  0  0  0  0
    2.0668   -0.6943   -1.1955 C   0  0  0  0  0  0  0  0  0  0  0  0
    2.9016   -0.3315   -0.2825 N   0  3  0  0  0  0  0  0  0  0  0  0
    4.2649   -0.7447   -0.6315 C   0  0  1  0  0  0  0  0  0  0  0  0
    4.6282   -1.5250    0.0372 H   0  0  0  0  0  0  0  0  0  0  0  0
    4.1294   -1.2731   -2.0872 C   0  0  2  0  0  0  0  0  0  0  0  0
    4.6694   -2.2014   -2.2736 H   0  0  0  0  0  0  0  0  0  0  0  0
    4.6064   -0.0845   -2.9580 C   0  0  0  0  0  0  0  0  0  0  0  0
    5.7240    0.5630   -2.1074 C   0  0  0  0  0  0  0  0  0  0  0  0
    5.2114    0.4607   -0.6502 C   0  0  0  0  0  0  0  0  0  0  0  0
    1.0039    1.9031    0.0027 H   0  0  0  0  0  0  0  0  0  0  0  0
   -0.5459    1.8868   -0.8726 H   0  0  0  0  0  0  0  0  0  0  0  0
   -0.5289    1.8773    0.9072 H   0  0  0  0  0  0  0  0  0  0  0  0
    0.5293   -0.3651    0.8851 H   0  0  0  0  0  0  0  0  0  0  0  0
   -1.0205   -0.3814    0.0098 H   0  0  0  0  0  0  0  0  0  0  0  0
    1.2583   -0.0929   -3.9348 H   0  0  0  0  0  0  0  0  0  0  0  0
    1.3667   -2.9216   -2.7232 H   0  0  0  0  0  0  0  0  0  0  0  0
   -1.4089   -2.7843   -5.5654 H   0  0  0  0  0  0  0  0  0  0  0  0
   -1.8491   -1.7928   -4.1542 H   0  0  0  0  0  0  0  0  0  0  0  0
   -2.1860    0.6016   -4.3744 H   0  0  0  0  0  0  0  0  0  0  0  0
   -2.8209    2.4526   -5.8675 H   0  0  0  0  0  0  0  0  0  0  0  0
   -1.7818    0.0652   -9.2566 H   0  0  0  0  0  0  0  0  0  0  0  0
   -1.1402   -1.7777   -7.7562 H   0  0  0  0  0  0  0  0  0  0  0  0
   -1.9668    3.0033   -8.6882 H   0  0  0  0  0  0  0  0  0  0  0  0
    5.0050   -0.4407   -3.9079 H   0  0  0  0  0  0  0  0  0  0  0  0
    3.7922    0.6212   -3.1229 H   0  0  0  0  0  0  0  0  0  0  0  0
    6.6598    0.0170   -2.2271 H   0  0  0  0  0  0  0  0  0  0  0  0
    5.8541    1.6100   -2.3814 H   0  0  0  0  0  0  0  0  0  0  0  0
    4.6724    1.3631   -0.3616 H   0  0  0  0  0  0  0  0  0  0  0  0
    6.0462    0.2904    0.0296 H   0  0  0  0  0  0  0  0  0  0  0  0
    0.5637   -2.3628   -7.2122 H   0  0  0  0  0  0  0  0  0  0  0  0
    2.6609    0.1495    0.5247 H   0  0  0  0  0  0  0  0  0  0  0  0
  1  2  1  0  0  0  0
  1 32  1  0  0  0  0
  1 33  1  0  0  0  0
  1 34  1  0  0  0  0
  2  3  1  0  0  0  0
  2 35  1  0  0  0  0
  2 36  1  0  0  0  0
  3 23  1  0  0  0  0
  3  4  1  0  0  0  0
  4  5  2  0  0  0  0
  4  6  1  0  0  0  0
  6 10  1  0  0  0  0
  6  7  1  0  0  0  0
  6 37  1  0  0  0  0
  7  8  1  0  0  0  0
  7 22  1  0  0  0  0
  7 38  1  0  0  0  0
  8  9  2  0  0  0  0
  9 10  1  0  0  0  0
  9 19  1  0  0  0  0
 10 11  1  0  0  0  0
 11 12  1  0  0  0  0
 11 39  1  0  0  0  0
 11 40  1  0  0  0  0
 12 17  2  0  0  0  0
 12 13  1  0  0  0  0
 13 14  2  0  0  0  0
 13 41  1  0  0  0  0
 14 15  1  0  0  0  0
 14 42  1  0  0  0  0
 15 16  2  0  0  0  0
 15 18  1  0  0  0  0
 16 17  1  0  0  0  0
 16 43  1  0  0  0  0
 17 44  1  0  0  0  0
 18 45  1  0  0  0  0
 19 20  2  0  0  0  0
 19 52  1  0  0  0  0
 20 21  2  0  0  0  0
 22 27  1  0  0  0  0
 22 23  1  0  0  0  0
 23 24  2  0  0  0  0
 24 25  1  0  0  0  0
 24 53  1  0  0  0  0
 25 26  1  0  0  0  0
 25 31  1  0  0  0  0
 25 27  1  0  0  0  0
 27 28  1  0  0  0  0
 27 29  1  0  0  0  0
 29 30  1  0  0  0  0
 29 46  1  0  0  0  0
 29 47  1  0  0  0  0
 30 31  1  0  0  0  0
 30 48  1  0  0  0  0
 30 49  1  0  0  0  0
 31 50  1  0  0  0  0
 31 51  1  0  0  0  0
M  CHG  4  19   1  20   1  21  -1  24   1
M  END
$$$$
CHEMBL483655
  -OEChem-07121202283D

 52 56  0     1  0  0  0  0  0999 V2000
   -0.0187    1.5258    0.0104 C   0  0  0  0  0  0  0  0  0  0  0  0
    0.0021   -0.0041    0.0020 C   0  0  0  0  0  0  0  0  0  0  0  0
   -1.3723   -0.5112    0.0124 N   0  0  0  0  0  0  0  0  0  0  0  0
   -2.0145   -0.7525    1.1946 C   0  0  0  0  0  0  0  0  0  0  0  0
   -1.4273   -0.6969    2.2540 O   0  0  0  0  0  0  0  0  0  0  0  0
   -3.4588   -1.0847    1.1299 C   0  0  1  0  0  0  0  0  0  0  0  0
   -3.6410   -2.1607    0.0078 C   0  0  1  0  0  0  0  0  0  0  0  0
   -5.0031   -2.5731    0.2634 N   0  0  0  0  0  0  0  0  0  0  0  0
   -5.2328   -2.3782    1.5703 C   0  0  0  0  0  0  0  0  0  0  0  0
   -4.1145   -1.8075    2.2119 N   0  0  0  0  0  0  0  0  0  0  0  0
   -3.7119   -1.9149    3.6164 C   0  0  0  0  0  0  0  0  0  0  0  0
   -4.3400   -0.7955    4.4060 C   0  0  0  0  0  0  0  0  0  0  0  0
   -3.6765    0.4098    4.5423 C   0  0  0  0  0  0  0  0  0  0  0  0
   -4.2499    1.4374    5.2660 C   0  0  0  0  0  0  0  0  0  0  0  0
   -5.4929    1.2592    5.8559 C   0  0  0  0  0  0  0  0  0  0  0  0
   -6.1568    0.0490    5.7173 C   0  0  0  0  0  0  0  0  0  0  0  0
   -5.5814   -0.9736    4.9882 C   0  0  0  0  0  0  0  0  0  0  0  0
   -6.0589    2.2684    6.5687 O   0  0  0  0  0  0  0  0  0  0  0  0
   -6.3660   -2.6831    2.1806 N   0  3  0  0  0  0  0  0  0  0  0  0
   -7.2135   -3.1369    1.5982 N   0  3  0  0  0  0  0  0  0  0  0  0
   -8.0429   -3.5811    1.0283 N   0  5  0  0  0  0  0  0  0  0  0  0
   -3.2357   -1.4929   -1.1996 N   0  0  0  0  0  0  0  0  0  0  0  0
   -2.0493   -0.7502   -1.1850 C   0  0  0  0  0  0  0  0  0  0  0  0
   -1.6850   -0.3823   -2.3657 N   0  0  0  0  0  0  0  0  0  0  0  0
   -2.6581   -0.8235   -3.3705 C   0  0  1  0  0  0  0  0  0  0  0  0
   -2.2410   -1.5959   -4.0167 H   0  0  0  0  0  0  0  0  0  0  0  0
   -3.8375   -1.3787   -2.5235 C   0  0  2  0  0  0  0  0  0  0  0  0
   -4.2454   -2.3189   -2.8947 H   0  0  0  0  0  0  0  0  0  0  0  0
   -4.8596   -0.2154   -2.5054 C   0  0  0  0  0  0  0  0  0  0  0  0
   -4.6979    0.4316   -3.9008 C   0  0  0  0  0  0  0  0  0  0  0  0
   -3.1775    0.3663   -4.1850 C   0  0  0  0  0  0  0  0  0  0  0  0
    1.0039    1.9031    0.0027 H   0  0  0  0  0  0  0  0  0  0  0  0
   -0.5459    1.8868   -0.8726 H   0  0  0  0  0  0  0  0  0  0  0  0
   -0.5289    1.8773    0.9072 H   0  0  0  0  0  0  0  0  0  0  0  0
    0.5123   -0.3556   -0.8948 H   0  0  0  0  0  0  0  0  0  0  0  0
    0.5293   -0.3651    0.8851 H   0  0  0  0  0  0  0  0  0  0  0  0
   -4.0320   -0.1912    0.8826 H   0  0  0  0  0  0  0  0  0  0  0  0
   -2.9662   -2.9964    0.1929 H   0  0  0  0  0  0  0  0  0  0  0  0
   -4.0434   -2.8728    4.0171 H   0  0  0  0  0  0  0  0  0  0  0  0
   -2.6265   -1.8465    3.6894 H   0  0  0  0  0  0  0  0  0  0  0  0
   -2.7089    0.5480    4.0828 H   0  0  0  0  0  0  0  0  0  0  0  0
   -3.7309    2.3784    5.3727 H   0  0  0  0  0  0  0  0  0  0  0  0
   -7.1245   -0.0921    6.1756 H   0  0  0  0  0  0  0  0  0  0  0  0
   -6.0998   -1.9144    4.8763 H   0  0  0  0  0  0  0  0  0  0  0  0
   -6.6137    2.8593    6.0414 H   0  0  0  0  0  0  0  0  0  0  0  0
   -5.8723   -0.5966   -2.3744 H   0  0  0  0  0  0  0  0  0  0  0  0
   -4.6132    0.4995   -1.7203 H   0  0  0  0  0  0  0  0  0  0  0  0
   -5.2555   -0.1313   -4.6495 H   0  0  0  0  0  0  0  0  0  0  0  0
   -5.0265    1.4707   -3.8802 H   0  0  0  0  0  0  0  0  0  0  0  0
   -2.6810    1.2826   -3.8656 H   0  0  0  0  0  0  0  0  0  0  0  0
   -3.0018    0.1967   -5.2473 H   0  0  0  0  0  0  0  0  0  0  0  0
   -6.4656   -2.5150    3.1307 H   0  0  0  0  0  0  0  0  0  0  0  0
  1  2  1  0  0  0  0
  1 32  1  0  0  0  0
  1 33  1  0  0  0  0
  1 34  1  0  0  0  0
  2  3  1  0  0  0  0
  2 35  1  0  0  0  0
  2 36  1  0  0  0  0
  3 23  1  0  0  0  0
  3  4  1  0  0  0  0
  4  5  2  0  0  0  0
  4  6  1  0  0  0  0
  6 10  1  0  0  0  0
  6  7  1  0  0  0  0
  6 37  1  0  0  0  0
  7  8  1  0  0  0  0
  7 22  1  0  0  0  0
  7 38  1  0  0  0  0
  8  9  2  0  0  0  0
  9 10  1  0  0  0  0
  9 19  1  0  0  0  0
 10 11  1  0  0  0  0
 11 12  1  0  0  0  0
 11 39  1  0  0  0  0
 11 40  1  0  0  0  0
 12 17  2  0  0  0  0
 12 13  1  0  0  0  0
 13 14  2  0  0  0  0
 13 41  1  0  0  0  0
 14 15  1  0  0  0  0
 14 42  1  0  0  0  0
 15 16  2  0  0  0  0
 15 18  1  0  0  0  0
 16 17  1  0  0  0  0
 16 43  1  0  0  0  0
 17 44  1  0  0  0  0
 18 45  1  0  0  0  0
 19 20  2  0  0  0  0
 19 52  1  0  0  0  0
 20 21  2  0  0  0  0
 22 27  1  0  0  0  0
 22 23  1  0  0  0  0
 23 24  2  0  0  0  0
 24 25  1  0  0  0  0
 25 26  1  0  0  0  0
 25 31  1  0  0  0  0
 25 27  1  0  0  0  0
 27 28  1  0  0  0  0
 27 29  1  0  0  0  0
 29 30  1  0  0  0  0
 29 46  1  0  0  0  0
 29 47  1  0  0  0  0
 30 31  1  0  0  0  0
 30 48  1  0  0  0  0
 30 49  1  0  0  0  0
 31 50  1  0  0  0  0
 31 51  1  0  0  0  0
M  CHG  3  19   1  20   1  21  -1
M  END
$$$$
CHEMBL1097983
  -OEChem-07121202283D

 53 55  0     0  0  0  0  0  0999 V2000
    0.4766    1.2133   -0.3405 C   0  0  0  0  0  0  0  0  0  0  0  0
    0.1872   -0.2795   -0.5101 C   0  0  0  0  0  0  0  0  0  0  0  0
   -1.2848   -0.5319   -0.3085 C   0  0  0  0  0  0  0  0  0  0  0  0
   -1.9071   -0.8265    0.9233 C   0  0  0  0  0  0  0  0  0  0  0  0
   -3.2786   -0.9877    0.6599 C   0  0  0  0  0  0  0  0  0  0  0  0
   -4.1342   -1.2903    1.7283 C   0  0  0  0  0  0  0  0  0  0  0  0
   -3.6155   -1.4123    2.9441 N   0  0  0  0  0  0  0  0  0  0  0  0
   -2.3140   -1.2530    3.1557 C   0  0  0  0  0  0  0  0  0  0  0  0
   -1.4699   -0.9677    2.1820 N   0  0  0  0  0  0  0  0  0  0  0  0
   -1.8248   -1.3910    4.4451 N   0  0  0  0  0  0  0  0  0  0  0  0
   -2.7388   -1.7071    5.5454 C   0  0  0  0  0  0  0  0  0  0  0  0
   -1.9495   -1.8032    6.8525 C   0  0  0  0  0  0  0  0  0  0  0  0
   -2.8660   -2.1202    7.9559 N   0  3  0  0  0  0  0  0  0  0  0  0
   -5.4941   -1.4583    1.5196 N   0  0  0  0  0  0  0  0  0  0  0  0
   -6.3465   -1.6267    2.6015 C   0  0  0  0  0  0  0  0  0  0  0  0
   -5.9263   -1.3019    3.8927 C   0  0  0  0  0  0  0  0  0  0  0  0
   -6.8120   -1.4870    4.9363 C   0  0  0  0  0  0  0  0  0  0  0  0
   -8.0224   -1.9631    4.6804 N   0  0  0  0  0  0  0  0  0  0  0  0
   -8.3888   -2.2601    3.4501 C   0  0  0  0  0  0  0  0  0  0  0  0
   -7.5783   -2.0946    2.4244 N   0  0  0  0  0  0  0  0  0  0  0  0
   -3.4482   -0.7924   -0.6858 N   0  0  0  0  0  0  0  0  0  0  0  0
   -2.1941   -0.5085   -1.2425 N   0  0  0  0  0  0  0  0  0  0  0  0
   -4.7178   -0.8627   -1.4134 C   0  0  0  0  0  0  0  0  0  0  0  0
   -5.4407    0.4816   -1.3089 C   0  0  0  0  0  0  0  0  0  0  0  0
   -6.6791    0.4130   -2.0186 O   0  0  0  0  0  0  0  0  0  0  0  0
   -7.4370    1.6239   -1.9834 C   0  0  0  0  0  0  0  0  0  0  0  0
   -8.7353    1.4360   -2.7708 C   0  0  0  0  0  0  0  0  0  0  0  0
   -9.4826    0.4013   -2.1980 F   0  0  0  0  0  0  0  0  0  0  0  0
   -9.4773    2.6215   -2.7364 F   0  0  0  0  0  0  0  0  0  0  0  0
   -8.4331    1.1134   -4.0982 F   0  0  0  0  0  0  0  0  0  0  0  0
    1.5413    1.3958   -0.4863 H   0  0  0  0  0  0  0  0  0  0  0  0
   -0.0933    1.7798   -1.0769 H   0  0  0  0  0  0  0  0  0  0  0  0
    0.1881    1.5277    0.6625 H   0  0  0  0  0  0  0  0  0  0  0  0
    0.4757   -0.5939   -1.5130 H   0  0  0  0  0  0  0  0  0  0  0  0
    0.7571   -0.8460    0.2264 H   0  0  0  0  0  0  0  0  0  0  0  0
   -0.8771   -1.2783    4.6189 H   0  0  0  0  0  0  0  0  0  0  0  0
   -3.4895   -0.9214    5.6313 H   0  0  0  0  0  0  0  0  0  0  0  0
   -3.2306   -2.6594    5.3471 H   0  0  0  0  0  0  0  0  0  0  0  0
   -1.1988   -2.5889    6.7667 H   0  0  0  0  0  0  0  0  0  0  0  0
   -1.4577   -0.8509    7.0509 H   0  0  0  0  0  0  0  0  0  0  0  0
   -3.5609   -1.3929    8.0354 H   0  0  0  0  0  0  0  0  0  0  0  0
   -3.3213   -3.0017    7.7723 H   0  0  0  0  0  0  0  0  0  0  0  0
   -5.8499   -1.4581    0.6172 H   0  0  0  0  0  0  0  0  0  0  0  0
   -4.9335   -0.9159    4.0711 H   0  0  0  0  0  0  0  0  0  0  0  0
   -6.5218   -1.2471    5.9485 H   0  0  0  0  0  0  0  0  0  0  0  0
   -9.3825   -2.6461    3.2770 H   0  0  0  0  0  0  0  0  0  0  0  0
   -4.5237   -1.0904   -2.4616 H   0  0  0  0  0  0  0  0  0  0  0  0
   -5.3414   -1.6452   -0.9811 H   0  0  0  0  0  0  0  0  0  0  0  0
   -5.6347    0.7093   -0.2607 H   0  0  0  0  0  0  0  0  0  0  0  0
   -4.8170    1.2641   -1.7412 H   0  0  0  0  0  0  0  0  0  0  0  0
   -7.6725    1.8753   -0.9492 H   0  0  0  0  0  0  0  0  0  0  0  0
   -6.8548    2.4301   -2.4297 H   0  0  0  0  0  0  0  0  0  0  0  0
   -2.3455   -2.1836    8.8179 H   0  0  0  0  0  0  0  0  0  0  0  0
  1  2  1  0  0  0  0
  1 31  1  0  0  0  0
  1 32  1  0  0  0  0
  1 33  1  0  0  0  0
  2  3  1  0  0  0  0
  2 34  1  0  0  0  0
  2 35  1  0  0  0  0
  3 22  2  0  0  0  0
  3  4  1  0  0  0  0
  4  9  2  0  0  0  0
  4  5  1  0  0  0  0
  5  6  2  0  0  0  0
  5 21  1  0  0  0  0
  6  7  1  0  0  0  0
  6 14  1  0  0  0  0
  7  8  2  0  0  0  0
  8  9  1  0  0  0  0
  8 10  1  0  0  0  0
 10 11  1  0  0  0  0
 10 36  1  0  0  0  0
 11 12  1  0  0  0  0
 11 37  1  0  0  0  0
 11 38  1  0  0  0  0
 12 13  1  0  0  0  0
 12 39  1  0  0  0  0
 12 40  1  0  0  0  0
 13 41  1  0  0  0  0
 13 42  1  0  0  0  0
 13 53  1  0  0  0  0
 14 15  1  0  0  0  0
 14 43  1  0  0  0  0
 15 20  2  0  0  0  0
 15 16  1  0  0  0  0
 16 17  2  0  0  0  0
 16 44  1  0  0  0  0
 17 18  1  0  0  0  0
 17 45  1  0  0  0  0
 18 19  2  0  0  0  0
 19 20  1  0  0  0  0
 19 46  1  0  0  0  0
 21 22  1  0  0  0  0
 21 23  1  0  0  0  0
 23 24  1  0  0  0  0
 23 47  1  0  0  0  0
 23 48  1  0  0  0  0
 24 25  1  0  0  0  0
 24 49  1  0  0  0  0
 24 50  1  0  0  0  0
 25 26  1  0  0  0  0
 26 27  1  0  0  0  0
 26 51  1  0  0  0  0
 26 52  1  0  0  0  0
 27 28  1  0  0  0  0
 27 29  1  0  0  0  0
 27 30  1  0  0  0  0
M  CHG  1  13   1
M  END
$$$$
CHEMBL1095123
  -OEChem-07121202283D

 55 58  0     0  0  0  0  0  0999 V2000
    0.2361    0.4967    0.8386 C   0  0  0  0  0  0  0  0  0  0  0  0
    0.5302   -0.9847    0.5939 C   0  0  0  0  0  0  0  0  0  0  0  0
    1.0427   -1.1697   -0.8111 C   0  0  0  0  0  0  0  0  0  0  0  0
    0.2473   -1.4169   -1.9503 C   0  0  0  0  0  0  0  0  0  0  0  0
    1.1231   -1.5228   -3.0449 C   0  0  0  0  0  0  0  0  0  0  0  0
    0.5813   -1.7706   -4.3138 C   0  0  0  0  0  0  0  0  0  0  0  0
   -0.7351   -1.8951   -4.4305 N   0  0  0  0  0  0  0  0  0  0  0  0
   -1.5323   -1.7889   -3.3735 C   0  0  0  0  0  0  0  0  0  0  0  0
   -1.0687   -1.5564   -2.1599 N   0  0  0  0  0  0  0  0  0  0  0  0
   -2.8998   -1.9269   -3.5514 N   0  0  0  0  0  0  0  0  0  0  0  0
   -3.8348   -1.7060   -2.4368 C   0  0  0  0  0  0  0  0  0  0  0  0
   -4.9266   -0.7378   -2.9062 C   0  0  0  0  0  0  0  0  0  0  0  0
   -5.4948   -1.2240   -4.1246 O   0  0  0  0  0  0  0  0  0  0  0  0
   -4.5699   -1.3011   -5.2120 C   0  0  0  0  0  0  0  0  0  0  0  0
   -3.4601   -2.2926   -4.8620 C   0  0  0  0  0  0  0  0  0  0  0  0
    1.4034   -1.8828   -5.4241 N   0  0  0  0  0  0  0  0  0  0  0  0
    0.8722   -2.2778   -6.6437 C   0  0  0  0  0  0  0  0  0  0  0  0
   -0.4933   -2.1407   -6.9002 C   0  0  0  0  0  0  0  0  0  0  0  0
   -0.9735   -2.5480   -8.1295 C   0  0  0  0  0  0  0  0  0  0  0  0
   -0.1294   -3.0518   -9.0188 N   0  0  0  0  0  0  0  0  0  0  0  0
    1.1545   -3.1680   -8.7461 C   0  0  0  0  0  0  0  0  0  0  0  0
    1.6563   -2.7877   -7.5885 N   0  0  0  0  0  0  0  0  0  0  0  0
    2.3905   -1.3423   -2.5559 N   0  0  0  0  0  0  0  0  0  0  0  0
    2.2935   -1.1222   -1.1755 N   0  0  0  0  0  0  0  0  0  0  0  0
    3.6281   -1.3695   -3.3392 C   0  0  0  0  0  0  0  0  0  0  0  0
    3.8614    0.0038   -3.9721 C   0  0  0  0  0  0  0  0  0  0  0  0
    5.0687   -0.0226   -4.7361 O   0  0  0  0  0  0  0  0  0  0  0  0
    5.3809    1.2180   -5.3728 C   0  0  0  0  0  0  0  0  0  0  0  0
    6.6860    1.0739   -6.1582 C   0  0  0  0  0  0  0  0  0  0  0  0
    6.5391    0.0762   -7.1278 F   0  0  0  0  0  0  0  0  0  0  0  0
    6.9917    2.2885   -6.7815 F   0  0  0  0  0  0  0  0  0  0  0  0
    7.7206    0.7254   -5.2834 F   0  0  0  0  0  0  0  0  0  0  0  0
    1.1503    1.0753    0.7062 H   0  0  0  0  0  0  0  0  0  0  0  0
   -0.5169    0.8396    0.1291 H   0  0  0  0  0  0  0  0  0  0  0  0
   -0.1346    0.6305    1.8548 H   0  0  0  0  0  0  0  0  0  0  0  0
    1.2832   -1.3277    1.3035 H   0  0  0  0  0  0  0  0  0  0  0  0
   -0.3840   -1.5633    0.7263 H   0  0  0  0  0  0  0  0  0  0  0  0
   -4.2861   -2.6536   -2.1429 H   0  0  0  0  0  0  0  0  0  0  0  0
   -3.3010   -1.2747   -1.5899 H   0  0  0  0  0  0  0  0  0  0  0  0
   -5.7033   -0.6680   -2.1447 H   0  0  0  0  0  0  0  0  0  0  0  0
   -4.4917    0.2473   -3.0750 H   0  0  0  0  0  0  0  0  0  0  0  0
   -5.0899   -1.6365   -6.1093 H   0  0  0  0  0  0  0  0  0  0  0  0
   -4.1336   -0.3180   -5.3892 H   0  0  0  0  0  0  0  0  0  0  0  0
   -2.6784   -2.2497   -5.6204 H   0  0  0  0  0  0  0  0  0  0  0  0
   -3.8731   -3.3004   -4.8164 H   0  0  0  0  0  0  0  0  0  0  0  0
    2.3501   -1.6853   -5.3486 H   0  0  0  0  0  0  0  0  0  0  0  0
   -1.1576   -1.7269   -6.1560 H   0  0  0  0  0  0  0  0  0  0  0  0
   -2.0240   -2.4575   -8.3633 H   0  0  0  0  0  0  0  0  0  0  0  0
    1.8146   -3.5828   -9.4935 H   0  0  0  0  0  0  0  0  0  0  0  0
    4.4658   -1.6158   -2.6867 H   0  0  0  0  0  0  0  0  0  0  0  0
    3.5452   -2.1217   -4.1237 H   0  0  0  0  0  0  0  0  0  0  0  0
    3.0238    0.2502   -4.6246 H   0  0  0  0  0  0  0  0  0  0  0  0
    3.9443    0.7560   -3.1876 H   0  0  0  0  0  0  0  0  0  0  0  0
    4.5748    1.4895   -6.0544 H   0  0  0  0  0  0  0  0  0  0  0  0
    5.4953    1.9954   -4.6174 H   0  0  0  0  0  0  0  0  0  0  0  0
  1  2  1  0  0  0  0
  1 33  1  0  0  0  0
  1 34  1  0  0  0  0
  1 35  1  0  0  0  0
  2  3  1  0  0  0  0
  2 36  1  0  0  0  0
  2 37  1  0  0  0  0
  3 24  2  0  0  0  0
  3  4  1  0  0  0  0
  4  9  2  0  0  0  0
  4  5  1  0  0  0  0
  5  6  2  0  0  0  0
  5 23  1  0  0  0  0
  6  7  1  0  0  0  0
  6 16  1  0  0  0  0
  7  8  2  0  0  0  0
  8  9  1  0  0  0  0
  8 10  1  0  0  0  0
 10 15  1  0  0  0  0
 10 11  1  0  0  0  0
 11 12  1  0  0  0  0
 11 38  1  0  0  0  0
 11 39  1  0  0  0  0
 12 13  1  0  0  0  0
 12 40  1  0  0  0  0
 12 41  1  0  0  0  0
 13 14  1  0  0  0  0
 14 15  1  0  0  0  0
 14 42  1  0  0  0  0
 14 43  1  0  0  0  0
 15 44  1  0  0  0  0
 15 45  1  0  0  0  0
 16 17  1  0  0  0  0
 16 46  1  0  0  0  0
 17 22  2  0  0  0  0
 17 18  1  0  0  0  0
 18 19  2  0  0  0  0
 18 47  1  0  0  0  0
 19 20  1  0  0  0  0
 19 48  1  0  0  0  0
 20 21  2  0  0  0  0
 21 22  1  0  0  0  0
 21 49  1  0  0  0  0
 23 24  1  0  0  0  0
 23 25  1  0  0  0  0
 25 26  1  0  0  0  0
 25 50  1  0  0  0  0
 25 51  1  0  0  0  0
 26 27  1  0  0  0  0
 26 52  1  0  0  0  0
 26 53  1  0  0  0  0
 27 28  1  0  0  0  0
 28 29  1  0  0  0  0
 28 54  1  0  0  0  0
 28 55  1  0  0  0  0
 29 30  1  0  0  0  0
 29 31  1  0  0  0  0
 29 32  1  0  0  0  0
M  END
$$$$
CHEMBL1095121
  -OEChem-07121202283D

 60 63  0     1  0  0  0  0  0999 V2000
    0.5768    0.5053   -0.4180 C   0  0  0  0  0  0  0  0  0  0  0  0
    0.2595   -0.9843   -0.5637 C   0  0  0  0  0  0  0  0  0  0  0  0
   -1.2186   -1.2044   -0.3695 C   0  0  0  0  0  0  0  0  0  0  0  0
   -1.8560   -1.4650    0.8623 C   0  0  0  0  0  0  0  0  0  0  0  0
   -3.2283   -1.6042    0.5907 C   0  0  0  0  0  0  0  0  0  0  0  0
   -4.0978   -1.8712    1.6574 C   0  0  0  0  0  0  0  0  0  0  0  0
   -3.5910   -1.9816    2.8793 N   0  0  0  0  0  0  0  0  0  0  0  0
   -2.2883   -1.8439    3.0984 C   0  0  0  0  0  0  0  0  0  0  0  0
   -1.4314   -1.5923    2.1267 N   0  0  0  0  0  0  0  0  0  0  0  0
   -1.8118   -1.9685    4.3939 N   0  0  0  0  0  0  0  0  0  0  0  0
   -0.3973   -1.7134    4.7074 C   0  0  0  0  0  0  0  0  0  0  0  0
   -0.3295   -0.7441    5.8921 C   0  0  0  0  0  0  0  0  0  0  0  0
   -1.1102   -1.2856    7.0116 N   0  3  0  0  0  0  0  0  0  0  0  0
   -2.5294   -1.3592    6.6422 C   0  0  1  0  0  0  0  0  0  0  0  0
   -2.8735   -0.3753    6.3233 H   0  0  0  0  0  0  0  0  0  0  0  0
   -2.7074   -2.3535    5.4956 C   0  0  0  0  0  0  0  0  0  0  0  0
   -3.3479   -1.8190    7.8503 C   0  0  0  0  0  0  0  0  0  0  0  0
   -5.4591   -2.0164    1.4407 N   0  0  0  0  0  0  0  0  0  0  0  0
   -6.2860   -2.4306    2.4752 C   0  0  0  0  0  0  0  0  0  0  0  0
   -5.8861   -2.2842    3.8049 C   0  0  0  0  0  0  0  0  0  0  0  0
   -6.7450   -2.7116    4.7985 C   0  0  0  0  0  0  0  0  0  0  0  0
   -7.9116   -3.2425    4.4606 N   0  0  0  0  0  0  0  0  0  0  0  0
   -8.2599   -3.3669    3.1959 C   0  0  0  0  0  0  0  0  0  0  0  0
   -7.4741   -2.9682    2.2162 N   0  0  0  0  0  0  0  0  0  0  0  0
   -3.3837   -1.4295   -0.7596 N   0  0  0  0  0  0  0  0  0  0  0  0
   -2.1200   -1.1799   -1.3110 N   0  0  0  0  0  0  0  0  0  0  0  0
   -4.6488   -1.4881   -1.4960 C   0  0  0  0  0  0  0  0  0  0  0  0
   -5.3493   -0.1303   -1.4151 C   0  0  0  0  0  0  0  0  0  0  0  0
   -6.5834   -0.1875   -2.1334 O   0  0  0  0  0  0  0  0  0  0  0  0
   -7.3207    1.0366   -2.1204 C   0  0  0  0  0  0  0  0  0  0  0  0
   -8.6160    0.8601   -2.9153 C   0  0  0  0  0  0  0  0  0  0  0  0
   -9.3852   -0.1538   -2.3344 F   0  0  0  0  0  0  0  0  0  0  0  0
   -9.3379    2.0585   -2.9026 F   0  0  0  0  0  0  0  0  0  0  0  0
   -8.3094    0.5145   -4.2358 F   0  0  0  0  0  0  0  0  0  0  0  0
    1.6459    0.6646   -0.5584 H   0  0  0  0  0  0  0  0  0  0  0  0
    0.0237    1.0697   -1.1688 H   0  0  0  0  0  0  0  0  0  0  0  0
    0.2867    0.8430    0.5769 H   0  0  0  0  0  0  0  0  0  0  0  0
    0.5496   -1.3220   -1.5586 H   0  0  0  0  0  0  0  0  0  0  0  0
    0.8126   -1.5487    0.1872 H   0  0  0  0  0  0  0  0  0  0  0  0
    0.0939   -2.6499    4.9718 H   0  0  0  0  0  0  0  0  0  0  0  0
    0.0953   -1.2695    3.8423 H   0  0  0  0  0  0  0  0  0  0  0  0
    0.7086   -0.6186    6.2001 H   0  0  0  0  0  0  0  0  0  0  0  0
   -0.7401    0.2212    5.5959 H   0  0  0  0  0  0  0  0  0  0  0  0
   -0.7746   -2.2097    7.2383 H   0  0  0  0  0  0  0  0  0  0  0  0
   -3.7414   -2.3326    5.1513 H   0  0  0  0  0  0  0  0  0  0  0  0
   -2.4535   -3.3557    5.8409 H   0  0  0  0  0  0  0  0  0  0  0  0
   -3.2215   -1.1080    8.6667 H   0  0  0  0  0  0  0  0  0  0  0  0
   -4.4014   -1.8737    7.5759 H   0  0  0  0  0  0  0  0  0  0  0  0
   -3.0040   -2.8030    8.1689 H   0  0  0  0  0  0  0  0  0  0  0  0
   -5.8338   -1.8284    0.5659 H   0  0  0  0  0  0  0  0  0  0  0  0
   -4.9291   -1.8481    4.0502 H   0  0  0  0  0  0  0  0  0  0  0  0
   -6.4692   -2.6146    5.8382 H   0  0  0  0  0  0  0  0  0  0  0  0
   -9.2179   -3.8040    2.9558 H   0  0  0  0  0  0  0  0  0  0  0  0
   -4.4508   -1.7332   -2.5394 H   0  0  0  0  0  0  0  0  0  0  0  0
   -5.2890   -2.2539   -1.0580 H   0  0  0  0  0  0  0  0  0  0  0  0
   -5.5473    0.1148   -0.3716 H   0  0  0  0  0  0  0  0  0  0  0  0
   -4.7091    0.6355   -1.8531 H   0  0  0  0  0  0  0  0  0  0  0  0
   -7.5596    1.3059   -1.0916 H   0  0  0  0  0  0  0  0  0  0  0  0
   -6.7214    1.8266   -2.5730 H   0  0  0  0  0  0  0  0  0  0  0  0
   -1.0040   -0.6853    7.8156 H   0  0  0  0  0  0  0  0  0  0  0  0
  1  2  1  0  0  0  0
  1 35  1  0  0  0  0
  1 36  1  0  0  0  0
  1 37  1  0  0  0  0
  2  3  1  0  0  0  0
  2 38  1  0  0  0  0
  2 39  1  0  0  0  0
  3 26  2  0  0  0  0
  3  4  1  0  0  0  0
  4  9  2  0  0  0  0
  4  5  1  0  0  0  0
  5  6  2  0  0  0  0
  5 25  1  0  0  0  0
  6  7  1  0  0  0  0
  6 18  1  0  0  0  0
  7  8  2  0  0  0  0
  8  9  1  0  0  0  0
  8 10  1  0  0  0  0
 10 16  1  0  0  0  0
 10 11  1  0  0  0  0
 11 12  1  0  0  0  0
 11 40  1  0  0  0  0
 11 41  1  0  0  0  0
 12 13  1  0  0  0  0
 12 42  1  0  0  0  0
 12 43  1  0  0  0  0
 13 14  1  0  0  0  0
 13 44  1  0  0  0  0
 13 60  1  0  0  0  0
 14 15  1  0  0  0  0
 14 16  1  0  0  0  0
 14 17  1  0  0  0  0
 16 45  1  0  0  0  0
 16 46  1  0  0  0  0
 17 47  1  0  0  0  0
 17 48  1  0  0  0  0
 17 49  1  0  0  0  0
 18 19  1  0  0  0  0
 18 50  1  0  0  0  0
 19 24  2  0  0  0  0
 19 20  1  0  0  0  0
 20 21  2  0  0  0  0
 20 51  1  0  0  0  0
 21 22  1  0  0  0  0
 21 52  1  0  0  0  0
 22 23  2  0  0  0  0
 23 24  1  0  0  0  0
 23 53  1  0  0  0  0
 25 26  1  0  0  0  0
 25 27  1  0  0  0  0
 27 28  1  0  0  0  0
 27 54  1  0  0  0  0
 27 55  1  0  0  0  0
 28 29  1  0  0  0  0
 28 56  1  0  0  0  0
 28 57  1  0  0  0  0
 29 30  1  0  0  0  0
 30 31  1  0  0  0  0
 30 58  1  0  0  0  0
 30 59  1  0  0  0  0
 31 32  1  0  0  0  0
 31 33  1  0  0  0  0
 31 34  1  0  0  0  0
M  CHG  1  13   1
M  END
$$$$
CHEMBL433418
  -OEChem-07121202283D

 55 57  0     0  0  0  0  0  0999 V2000
   -0.0187    1.5258    0.0104 C   0  0  0  0  0  0  0  0  0  0  0  0
    0.0021   -0.0041    0.0020 C   0  0  0  0  0  0  0  0  0  0  0  0
    0.7182   -0.4975   -1.2568 C   0  0  0  0  0  0  0  0  0  0  0  0
    0.7376   -1.9263   -1.2646 O   0  0  0  0  0  0  0  0  0  0  0  0
    1.3406   -2.5287   -2.3211 C   0  0  0  0  0  0  0  0  0  0  0  0
    1.9079   -1.7633   -3.3280 C   0  0  0  0  0  0  0  0  0  0  0  0
    2.5213   -2.3774   -4.4026 C   0  0  0  0  0  0  0  0  0  0  0  0
    2.5749   -3.7589   -4.4826 C   0  0  0  0  0  0  0  0  0  0  0  0
    2.0156   -4.5350   -3.4898 C   0  0  0  0  0  0  0  0  0  0  0  0
    1.3973   -3.9265   -2.3957 C   0  0  0  0  0  0  0  0  0  0  0  0
    0.8018   -4.7516   -1.3260 C   0  0  0  0  0  0  0  0  0  0  0  0
    0.1861   -4.2862   -0.2563 N   0  0  0  0  0  0  0  0  0  0  0  0
    1.1774   -6.7102   -1.9543 H   0  0  0  0  0  0  0  0  0  0  0  0
   -0.2305   -5.2988    0.5028 C   0  0  0  0  0  0  0  0  0  0  0  0
    0.1463   -6.4804   -0.1279 C   0  0  0  0  0  0  0  0  0  0  0  0
    0.7965   -6.1132   -1.2915 N   0  0  0  0  0  0  0  0  0  0  0  0
   -0.1778   -7.7139    0.4736 C   0  0  0  0  0  0  0  0  0  0  0  0
    0.1418   -8.7618   -0.0593 O   0  0  0  0  0  0  0  0  0  0  0  0
   -0.8452   -7.7208    1.6460 N   0  0  0  0  0  0  0  0  0  0  0  0
   -1.2037   -6.5724    2.2455 C   0  0  0  0  0  0  0  0  0  0  0  0
   -1.8040   -6.6179    3.3020 O   0  0  0  0  0  0  0  0  0  0  0  0
   -0.9146   -5.3733    1.7064 N   0  0  0  0  0  0  0  0  0  0  0  0
   -1.3232   -4.1451    2.3927 C   0  0  0  0  0  0  0  0  0  0  0  0
   -2.7189   -3.7358    1.9180 C   0  0  0  0  0  0  0  0  0  0  0  0
   -3.7349   -4.7963    2.3469 C   0  0  0  0  0  0  0  0  0  0  0  0
   -3.0943   -2.3890    2.5394 C   0  0  0  0  0  0  0  0  0  0  0  0
   -1.1848   -8.9994    2.2752 C   0  0  0  0  0  0  0  0  0  0  0  0
    3.3606   -4.5281   -5.8594 S   0  0  0  0  0  0  0  0  0  0  0  0
    2.7994   -5.8286   -5.9729 O   0  0  0  0  0  0  0  0  0  0  0  0
    3.3260   -3.5878   -6.9243 O   0  0  0  0  0  0  0  0  0  0  0  0
    4.9549   -4.7338   -5.4613 N   0  0  0  0  0  0  0  0  0  0  0  0
    1.0039    1.9031    0.0027 H   0  0  0  0  0  0  0  0  0  0  0  0
   -0.5459    1.8868   -0.8726 H   0  0  0  0  0  0  0  0  0  0  0  0
   -0.5289    1.8773    0.9072 H   0  0  0  0  0  0  0  0  0  0  0  0
    0.5293   -0.3651    0.8851 H   0  0  0  0  0  0  0  0  0  0  0  0
   -1.0205   -0.3814    0.0098 H   0  0  0  0  0  0  0  0  0  0  0  0
    0.1910   -0.1364   -2.1398 H   0  0  0  0  0  0  0  0  0  0  0  0
    1.7408   -0.1202   -1.2645 H   0  0  0  0  0  0  0  0  0  0  0  0
    1.8701   -0.6854   -3.2724 H   0  0  0  0  0  0  0  0  0  0  0  0
    2.9613   -1.7768   -5.1850 H   0  0  0  0  0  0  0  0  0  0  0  0
    2.0589   -5.6121   -3.5564 H   0  0  0  0  0  0  0  0  0  0  0  0
   -1.3418   -4.3191    3.4685 H   0  0  0  0  0  0  0  0  0  0  0  0
   -0.6142   -3.3490    2.1656 H   0  0  0  0  0  0  0  0  0  0  0  0
   -2.7219   -3.6481    0.8315 H   0  0  0  0  0  0  0  0  0  0  0  0
   -3.7318   -4.8840    3.4334 H   0  0  0  0  0  0  0  0  0  0  0  0
   -4.7292   -4.5047    2.0087 H   0  0  0  0  0  0  0  0  0  0  0  0
   -3.4674   -5.7558    1.9042 H   0  0  0  0  0  0  0  0  0  0  0  0
   -2.3705   -1.6335    2.2338 H   0  0  0  0  0  0  0  0  0  0  0  0
   -4.0886   -2.0974    2.2012 H   0  0  0  0  0  0  0  0  0  0  0  0
   -3.0913   -2.4767    3.6258 H   0  0  0  0  0  0  0  0  0  0  0  0
   -0.8197   -9.8179    1.6548 H   0  0  0  0  0  0  0  0  0  0  0  0
   -0.7204   -9.0547    3.2597 H   0  0  0  0  0  0  0  0  0  0  0  0
   -2.2671   -9.0771    2.3791 H   0  0  0  0  0  0  0  0  0  0  0  0
    5.2799   -4.4424   -4.5951 H   0  0  0  0  0  0  0  0  0  0  0  0
    5.5636   -5.1456   -6.0943 H   0  0  0  0  0  0  0  0  0  0  0  0
  1  2  1  0  0  0  0
  1 32  1  0  0  0  0
  1 33  1  0  0  0  0
  1 34  1  0  0  0  0
  2  3  1  0  0  0  0
  2 35  1  0  0  0  0
  2 36  1  0  0  0  0
  3  4  1  0  0  0  0
  3 37  1  0  0  0  0
  3 38  1  0  0  0  0
  4  5  1  0  0  0  0
  5 10  2  0  0  0  0
  5  6  1  0  0  0  0
  6  7  2  0  0  0  0
  6 39  1  0  0  0  0
  7  8  1  0  0  0  0
  7 40  1  0  0  0  0
  8  9  2  0  0  0  0
  8 28  1  0  0  0  0
  9 10  1  0  0  0  0
  9 41  1  0  0  0  0
 10 11  1  0  0  0  0
 11 16  1  0  0  0  0
 11 12  2  0  0  0  0
 12 14  1  0  0  0  0
 13 16  1  0  0  0  0
 14 22  1  0  0  0  0
 14 15  2  0  0  0  0
 15 17  1  0  0  0  0
 15 16  1  0  0  0  0
 17 19  1  0  0  0  0
 17 18  2  0  0  0  0
 19 20  1  0  0  0  0
 19 27  1  0  0  0  0
 20 22  1  0  0  0  0
 20 21  2  0  0  0  0
 22 23  1  0  0  0  0
 23 24  1  0  0  0  0
 23 42  1  0  0  0  0
 23 43  1  0  0  0  0
 24 25  1  0  0  0  0
 24 26  1  0  0  0  0
 24 44  1  0  0  0  0
 25 45  1  0  0  0  0
 25 46  1  0  0  0  0
 25 47  1  0  0  0  0
 26 48  1  0  0  0  0
 26 49  1  0  0  0  0
 26 50  1  0  0  0  0
 27 51  1  0  0  0  0
 27 52  1  0  0  0  0
 27 53  1  0  0  0  0
 28 29  2  0  0  0  0
 28 30  2  0  0  0  0
 28 31  1  0  0  0  0
 31 54  1  0  0  0  0
 31 55  1  0  0  0  0
M  END
$$$$
CHEMBL369259
  -OEChem-07121202283D

 57 63  0     1  0  0  0  0  0999 V2000
   -0.0165    1.3628    0.0095 C   0  0  0  0  0  0  0  0  0  0  0  0
    1.1698    2.0838    0.0021 C   0  0  0  0  0  0  0  0  0  0  0  0
    2.3862    1.4376   -0.0135 C   0  0  0  0  0  0  0  0  0  0  0  0
    2.4284    0.0458   -0.0214 C   0  0  0  0  0  0  0  0  0  0  0  0
    1.2231   -0.6777   -0.0133 C   0  0  0  0  0  0  0  0  0  0  0  0
    0.0021   -0.0041    0.0020 C   0  0  0  0  0  0  0  0  0  0  0  0
    1.2934   -2.1480   -0.0219 C   0  0  0  0  0  0  0  0  0  0  0  0
    2.5744   -2.7535   -0.0380 C   0  0  0  0  0  0  0  0  0  0  0  0
    3.6874   -1.9921   -0.0449 C   0  0  0  0  0  0  0  0  0  0  0  0
    3.6240   -0.6315   -0.0374 N   0  0  0  0  0  0  0  0  0  0  0  0
    4.9010   -2.8944   -0.0614 C   0  0  2  0  0  0  0  0  0  0  0  0
    4.4244   -4.2808   -0.0638 N   0  0  3  0  0  0  0  0  0  0  0  0
    2.9595   -4.2121   -0.0492 C   0  0  0  0  0  0  0  0  0  0  0  0
    5.2080   -5.4351   -0.0783 C   0  0  0  0  0  0  0  0  0  0  0  0
    4.6092   -6.6942   -0.0846 C   0  0  0  0  0  0  0  0  0  0  0  0
    5.4241   -7.8108   -0.0989 C   0  0  0  0  0  0  0  0  0  0  0  0
    6.8077   -7.6417   -0.1065 C   0  0  0  0  0  0  0  0  0  0  0  0
    7.3421   -6.4275   -0.0997 N   0  0  0  0  0  0  0  0  0  0  0  0
    6.5956   -5.3435   -0.0924 C   0  0  0  0  0  0  0  0  0  0  0  0
    7.6919   -8.8320   -0.1219 C   0  0  0  0  0  0  0  0  0  0  0  0
    9.0755   -8.6652   -0.1238 C   0  0  0  0  0  0  0  0  0  0  0  0
    9.8878   -9.7856   -0.1382 C   0  0  0  0  0  0  0  0  0  0  0  0
    9.2893  -11.0377   -0.1502 C   0  0  0  0  0  0  0  0  0  0  0  0
    7.9097  -11.1300   -0.1475 C   0  0  0  0  0  0  0  0  0  0  0  0
    7.1594  -10.0473   -0.1282 N   0  0  0  0  0  0  0  0  0  0  0  0
    5.7400   -2.6447    1.1653 C   0  0  0  0  0  0  0  0  0  0  0  0
    5.3716   -3.1912    2.3810 C   0  0  0  0  0  0  0  0  0  0  0  0
    6.1382   -2.9693    3.5059 C   0  0  0  0  0  0  0  0  0  0  0  0
    7.2912   -2.1918    3.4269 C   0  0  0  0  0  0  0  0  0  0  0  0
    7.6469   -1.6423    2.2020 C   0  0  0  0  0  0  0  0  0  0  0  0
    6.8848   -1.8727    1.0780 C   0  0  0  0  0  0  0  0  0  0  0  0
    8.9129   -0.8383    2.4265 C   0  0  0  0  0  0  0  0  0  0  0  0
    8.9432   -0.7130    3.9682 C   0  0  0  0  0  0  0  0  0  0  0  0
    8.1884   -1.8597    4.3954 O   0  0  0  0  0  0  0  0  0  0  0  0
    0.2786   -2.8253   -0.0151 O   0  0  0  0  0  0  0  0  0  0  0  0
   -0.9613    1.8858    0.0259 H   0  0  0  0  0  0  0  0  0  0  0  0
    1.1386    3.1633    0.0082 H   0  0  0  0  0  0  0  0  0  0  0  0
    3.3032    2.0080   -0.0199 H   0  0  0  0  0  0  0  0  0  0  0  0
   -0.9242   -0.5595    0.0083 H   0  0  0  0  0  0  0  0  0  0  0  0
    5.4905   -2.7047   -0.9584 H   0  0  0  0  0  0  0  0  0  0  0  0
    2.5749   -4.7034    0.8446 H   0  0  0  0  0  0  0  0  0  0  0  0
    2.5575   -4.6942   -0.9403 H   0  0  0  0  0  0  0  0  0  0  0  0
    3.5339   -6.7948   -0.0780 H   0  0  0  0  0  0  0  0  0  0  0  0
    4.9942   -8.8016   -0.1037 H   0  0  0  0  0  0  0  0  0  0  0  0
    7.0663   -4.3714   -0.0925 H   0  0  0  0  0  0  0  0  0  0  0  0
    9.5077   -7.6755   -0.1145 H   0  0  0  0  0  0  0  0  0  0  0  0
   10.9634   -9.6878   -0.1403 H   0  0  0  0  0  0  0  0  0  0  0  0
    9.8954  -11.9315   -0.1619 H   0  0  0  0  0  0  0  0  0  0  0  0
    7.4409  -12.1029   -0.1572 H   0  0  0  0  0  0  0  0  0  0  0  0
    4.4786   -3.7947    2.4500 H   0  0  0  0  0  0  0  0  0  0  0  0
    5.8437   -3.4003    4.4514 H   0  0  0  0  0  0  0  0  0  0  0  0
    7.1787   -1.4477    0.1296 H   0  0  0  0  0  0  0  0  0  0  0  0
    9.7869   -1.3782    2.0623 H   0  0  0  0  0  0  0  0  0  0  0  0
    8.8396    0.1429    1.9573 H   0  0  0  0  0  0  0  0  0  0  0  0
    9.9666   -0.7641    4.3397 H   0  0  0  0  0  0  0  0  0  0  0  0
    8.4599    0.2094    4.2902 H   0  0  0  0  0  0  0  0  0  0  0  0
    4.4504   -0.1236   -0.0431 H   0  0  0  0  0  0  0  0  0  0  0  0
  1  6  2  0  0  0  0
  1  2  1  0  0  0  0
  1 36  1  0  0  0  0
  2  3  2  0  0  0  0
  2 37  1  0  0  0  0
  3  4  1  0  0  0  0
  3 38  1  0  0  0  0
  4 10  1  0  0  0  0
  4  5  2  0  0  0  0
  5  6  1  0  0  0  0
  5  7  1  0  0  0  0
  6 39  1  0  0  0  0
  7  8  1  0  0  0  0
  7 35  2  0  0  0  0
  8 13  1  0  0  0  0
  8  9  2  0  0  0  0
  9 10  1  0  0  0  0
  9 11  1  0  0  0  0
 10 57  1  0  0  0  0
 11 12  1  0  0  0  0
 11 26  1  0  0  0  0
 11 40  1  0  0  0  0
 12 13  1  0  0  0  0
 12 14  1  0  0  0  0
 13 41  1  0  0  0  0
 13 42  1  0  0  0  0
 14 19  2  0  0  0  0
 14 15  1  0  0  0  0
 15 16  2  0  0  0  0
 15 43  1  0  0  0  0
 16 17  1  0  0  0  0
 16 44  1  0  0  0  0
 17 18  2  0  0  0  0
 17 20  1  0  0  0  0
 18 19  1  0  0  0  0
 19 45  1  0  0  0  0
 20 25  2  0  0  0  0
 20 21  1  0  0  0  0
 21 22  2  0  0  0  0
 21 46  1  0  0  0  0
 22 23  1  0  0  0  0
 22 47  1  0  0  0  0
 23 24  2  0  0  0  0
 23 48  1  0  0  0  0
 24 25  1  0  0  0  0
 24 49  1  0  0  0  0
 26 31  2  0  0  0  0
 26 27  1  0  0  0  0
 27 28  2  0  0  0  0
 27 50  1  0  0  0  0
 28 29  1  0  0  0  0
 28 51  1  0  0  0  0
 29 34  1  0  0  0  0
 29 30  2  0  0  0  0
 30 31  1  0  0  0  0
 30 32  1  0  0  0  0
 31 52  1  0  0  0  0
 32 33  1  0  0  0  0
 32 53  1  0  0  0  0
 32 54  1  0  0  0  0
 33 34  1  0  0  0  0
 33 55  1  0  0  0  0
 33 56  1  0  0  0  0
M  END
$$$$
CHEMBL369259
  -OEChem-07121202283D

 58 64  0     1  0  0  0  0  0999 V2000
   -0.0165    1.3628    0.0095 C   0  0  0  0  0  0  0  0  0  0  0  0
    1.1698    2.0838    0.0021 C   0  0  0  0  0  0  0  0  0  0  0  0
    2.3862    1.4376   -0.0135 C   0  0  0  0  0  0  0  0  0  0  0  0
    2.4284    0.0458   -0.0214 C   0  0  0  0  0  0  0  0  0  0  0  0
    1.2231   -0.6777   -0.0133 C   0  0  0  0  0  0  0  0  0  0  0  0
    0.0021   -0.0041    0.0020 C   0  0  0  0  0  0  0  0  0  0  0  0
    1.2934   -2.1480   -0.0219 C   0  0  0  0  0  0  0  0  0  0  0  0
    2.5744   -2.7535   -0.0380 C   0  0  0  0  0  0  0  0  0  0  0  0
    3.6874   -1.9921   -0.0449 C   0  0  0  0  0  0  0  0  0  0  0  0
    3.6240   -0.6315   -0.0374 N   0  0  0  0  0  0  0  0  0  0  0  0
    4.9010   -2.8944   -0.0614 C   0  0  2  0  0  0  0  0  0  0  0  0
    4.4244   -4.2808   -0.0638 N   0  0  3  0  0  0  0  0  0  0  0  0
    2.9595   -4.2121   -0.0492 C   0  0  0  0  0  0  0  0  0  0  0  0
    5.2080   -5.4351   -0.0783 C   0  0  0  0  0  0  0  0  0  0  0  0
    4.6092   -6.6942   -0.0846 C   0  0  0  0  0  0  0  0  0  0  0  0
    5.4241   -7.8108   -0.0989 C   0  0  0  0  0  0  0  0  0  0  0  0
    6.8077   -7.6417   -0.1065 C   0  0  0  0  0  0  0  0  0  0  0  0
    7.3421   -6.4275   -0.0997 N   0  0  0  0  0  0  0  0  0  0  0  0
    6.5956   -5.3435   -0.0924 C   0  0  0  0  0  0  0  0  0  0  0  0
    7.6919   -8.8320   -0.1219 C   0  0  0  0  0  0  0  0  0  0  0  0
    9.0755   -8.6652   -0.1238 C   0  0  0  0  0  0  0  0  0  0  0  0
    9.8878   -9.7856   -0.1382 C   0  0  0  0  0  0  0  0  0  0  0  0
    9.2893  -11.0377   -0.1502 C   0  0  0  0  0  0  0  0  0  0  0  0
    7.9097  -11.1300   -0.1475 C   0  0  0  0  0  0  0  0  0  0  0  0
    7.1594  -10.0473   -0.1282 N   0  3  0  0  0  0  0  0  0  0  0  0
    5.7400   -2.6447    1.1653 C   0  0  0  0  0  0  0  0  0  0  0  0
    5.3716   -3.1912    2.3810 C   0  0  0  0  0  0  0  0  0  0  0  0
    6.1382   -2.9693    3.5059 C   0  0  0  0  0  0  0  0  0  0  0  0
    7.2912   -2.1918    3.4269 C   0  0  0  0  0  0  0  0  0  0  0  0
    7.6469   -1.6423    2.2020 C   0  0  0  0  0  0  0  0  0  0  0  0
    6.8848   -1.8727    1.0780 C   0  0  0  0  0  0  0  0  0  0  0  0
    8.9129   -0.8383    2.4265 C   0  0  0  0  0  0  0  0  0  0  0  0
    8.9432   -0.7130    3.9682 C   0  0  0  0  0  0  0  0  0  0  0  0
    8.1884   -1.8597    4.3954 O   0  0  0  0  0  0  0  0  0  0  0  0
    0.2786   -2.8253   -0.0151 O   0  0  0  0  0  0  0  0  0  0  0  0
   -0.9613    1.8858    0.0259 H   0  0  0  0  0  0  0  0  0  0  0  0
    1.1386    3.1633    0.0082 H   0  0  0  0  0  0  0  0  0  0  0  0
    3.3032    2.0080   -0.0199 H   0  0  0  0  0  0  0  0  0  0  0  0
   -0.9242   -0.5595    0.0083 H   0  0  0  0  0  0  0  0  0  0  0  0
    5.4905   -2.7047   -0.9584 H   0  0  0  0  0  0  0  0  0  0  0  0
    2.5749   -4.7034    0.8446 H   0  0  0  0  0  0  0  0  0  0  0  0
    2.5575   -4.6942   -0.9403 H   0  0  0  0  0  0  0  0  0  0  0  0
    3.5339   -6.7948   -0.0780 H   0  0  0  0  0  0  0  0  0  0  0  0
    4.9942   -8.8016   -0.1037 H   0  0  0  0  0  0  0  0  0  0  0  0
    7.0663   -4.3714   -0.0925 H   0  0  0  0  0  0  0  0  0  0  0  0
    9.5077   -7.6755   -0.1145 H   0  0  0  0  0  0  0  0  0  0  0  0
   10.9634   -9.6878   -0.1403 H   0  0  0  0  0  0  0  0  0  0  0  0
    9.8954  -11.9315   -0.1619 H   0  0  0  0  0  0  0  0  0  0  0  0
    7.4409  -12.1029   -0.1572 H   0  0  0  0  0  0  0  0  0  0  0  0
    4.4786   -3.7947    2.4500 H   0  0  0  0  0  0  0  0  0  0  0  0
    5.8437   -3.4003    4.4514 H   0  0  0  0  0  0  0  0  0  0  0  0
    7.1787   -1.4477    0.1296 H   0  0  0  0  0  0  0  0  0  0  0  0
    9.7869   -1.3782    2.0623 H   0  0  0  0  0  0  0  0  0  0  0  0
    8.8396    0.1429    1.9573 H   0  0  0  0  0  0  0  0  0  0  0  0
    9.9666   -0.7641    4.3397 H   0  0  0  0  0  0  0  0  0  0  0  0
    8.4599    0.2094    4.2902 H   0  0  0  0  0  0  0  0  0  0  0  0
    4.4504   -0.1236   -0.0431 H   0  0  0  0  0  0  0  0  0  0  0  0
    6.1939  -10.1408   -0.1227 H   0  0  0  0  0  0  0  0  0  0  0  0
  1  6  2  0  0  0  0
  1  2  1  0  0  0  0
  1 36  1  0  0  0  0
  2  3  2  0  0  0  0
  2 37  1  0  0  0  0
  3  4  1  0  0  0  0
  3 38  1  0  0  0  0
  4 10  1  0  0  0  0
  4  5  2  0  0  0  0
  5  6  1  0  0  0  0
  5  7  1  0  0  0  0
  6 39  1  0  0  0  0
  7  8  1  0  0  0  0
  7 35  2  0  0  0  0
  8 13  1  0  0  0  0
  8  9  2  0  0  0  0
  9 10  1  0  0  0  0
  9 11  1  0  0  0  0
 10 57  1  0  0  0  0
 11 12  1  0  0  0  0
 11 26  1  0  0  0  0
 11 40  1  0  0  0  0
 12 13  1  0  0  0  0
 12 14  1  0  0  0  0
 13 41  1  0  0  0  0
 13 42  1  0  0  0  0
 14 19  2  0  0  0  0
 14 15  1  0  0  0  0
 15 16  2  0  0  0  0
 15 43  1  0  0  0  0
 16 17  1  0  0  0  0
 16 44  1  0  0  0  0
 17 18  2  0  0  0  0
 17 20  1  0  0  0  0
 18 19  1  0  0  0  0
 19 45  1  0  0  0  0
 20 25  2  0  0  0  0
 20 21  1  0  0  0  0
 21 22  2  0  0  0  0
 21 46  1  0  0  0  0
 22 23  1  0  0  0  0
 22 47  1  0  0  0  0
 23 24  2  0  0  0  0
 23 48  1  0  0  0  0
 24 25  1  0  0  0  0
 24 49  1  0  0  0  0
 25 58  1  0  0  0  0
 26 31  2  0  0  0  0
 26 27  1  0  0  0  0
 27 28  2  0  0  0  0
 27 50  1  0  0  0  0
 28 29  1  0  0  0  0
 28 51  1  0  0  0  0
 29 34  1  0  0  0  0
 29 30  2  0  0  0  0
 30 31  1  0  0  0  0
 30 32  1  0  0  0  0
 31 52  1  0  0  0  0
 32 33  1  0  0  0  0
 32 53  1  0  0  0  0
 32 54  1  0  0  0  0
 33 34  1  0  0  0  0
 33 55  1  0  0  0  0
 33 56  1  0  0  0  0
M  CHG  1  25   1
M  END
$$$$
CHEMBL369259
  -OEChem-07121202283D

 58 64  0     1  0  0  0  0  0999 V2000
   -0.0165    1.3628    0.0095 C   0  0  0  0  0  0  0  0  0  0  0  0
    1.1698    2.0838    0.0021 C   0  0  0  0  0  0  0  0  0  0  0  0
    2.3862    1.4376   -0.0135 C   0  0  0  0  0  0  0  0  0  0  0  0
    2.4284    0.0458   -0.0214 C   0  0  0  0  0  0  0  0  0  0  0  0
    1.2231   -0.6777   -0.0133 C   0  0  0  0  0  0  0  0  0  0  0  0
    0.0021   -0.0041    0.0020 C   0  0  0  0  0  0  0  0  0  0  0  0
    1.2934   -2.1480   -0.0219 C   0  0  0  0  0  0  0  0  0  0  0  0
    2.5744   -2.7535   -0.0380 C   0  0  0  0  0  0  0  0  0  0  0  0
    3.6874   -1.9921   -0.0449 C   0  0  0  0  0  0  0  0  0  0  0  0
    3.6240   -0.6315   -0.0374 N   0  0  0  0  0  0  0  0  0  0  0  0
    4.9010   -2.8944   -0.0614 C   0  0  2  0  0  0  0  0  0  0  0  0
    4.4244   -4.2808   -0.0638 N   0  0  3  0  0  0  0  0  0  0  0  0
    2.9595   -4.2121   -0.0492 C   0  0  0  0  0  0  0  0  0  0  0  0
    5.2080   -5.4351   -0.0783 C   0  0  0  0  0  0  0  0  0  0  0  0
    6.5992   -5.3433   -0.0866 C   0  0  0  0  0  0  0  0  0  0  0  0
    7.3362   -6.5128   -0.1010 C   0  0  0  0  0  0  0  0  0  0  0  0
    6.6684   -7.7363   -0.1065 C   0  0  0  0  0  0  0  0  0  0  0  0
    5.3426   -7.7848   -0.0987 N   0  3  0  0  0  0  0  0  0  0  0  0
    4.6107   -6.6910   -0.0788 C   0  0  0  0  0  0  0  0  0  0  0  0
    7.4483   -8.9974   -0.1219 C   0  0  0  0  0  0  0  0  0  0  0  0
    6.7825  -10.2216   -0.1332 C   0  0  0  0  0  0  0  0  0  0  0  0
    7.5240  -11.3902   -0.1475 C   0  0  0  0  0  0  0  0  0  0  0  0
    8.9086  -11.2962   -0.1500 C   0  0  0  0  0  0  0  0  0  0  0  0
    9.5036  -10.0481   -0.1382 C   0  0  0  0  0  0  0  0  0  0  0  0
    8.7742   -8.9510   -0.1302 N   0  0  0  0  0  0  0  0  0  0  0  0
    5.7400   -2.6447    1.1653 C   0  0  0  0  0  0  0  0  0  0  0  0
    5.3716   -3.1912    2.3810 C   0  0  0  0  0  0  0  0  0  0  0  0
    6.1382   -2.9693    3.5059 C   0  0  0  0  0  0  0  0  0  0  0  0
    7.2912   -2.1918    3.4269 C   0  0  0  0  0  0  0  0  0  0  0  0
    7.6469   -1.6423    2.2020 C   0  0  0  0  0  0  0  0  0  0  0  0
    6.8848   -1.8727    1.0780 C   0  0  0  0  0  0  0  0  0  0  0  0
    8.9129   -0.8383    2.4265 C   0  0  0  0  0  0  0  0  0  0  0  0
    8.9432   -0.7130    3.9682 C   0  0  0  0  0  0  0  0  0  0  0  0
    8.1884   -1.8597    4.3954 O   0  0  0  0  0  0  0  0  0  0  0  0
    0.2786   -2.8253   -0.0151 O   0  0  0  0  0  0  0  0  0  0  0  0
   -0.9613    1.8858    0.0259 H   0  0  0  0  0  0  0  0  0  0  0  0
    1.1386    3.1633    0.0082 H   0  0  0  0  0  0  0  0  0  0  0  0
    3.3032    2.0080   -0.0199 H   0  0  0  0  0  0  0  0  0  0  0  0
   -0.9242   -0.5595    0.0083 H   0  0  0  0  0  0  0  0  0  0  0  0
    5.4905   -2.7047   -0.9584 H   0  0  0  0  0  0  0  0  0  0  0  0
    2.5749   -4.7034    0.8446 H   0  0  0  0  0  0  0  0  0  0  0  0
    2.5575   -4.6942   -0.9403 H   0  0  0  0  0  0  0  0  0  0  0  0
    7.0896   -4.3810   -0.0824 H   0  0  0  0  0  0  0  0  0  0  0  0
    8.4157   -6.4789   -0.1081 H   0  0  0  0  0  0  0  0  0  0  0  0
    3.5337   -6.7698   -0.0675 H   0  0  0  0  0  0  0  0  0  0  0  0
    5.7031  -10.2580   -0.1305 H   0  0  0  0  0  0  0  0  0  0  0  0
    7.0360  -12.3536   -0.1561 H   0  0  0  0  0  0  0  0  0  0  0  0
    9.5156  -12.1894   -0.1606 H   0  0  0  0  0  0  0  0  0  0  0  0
   10.5809   -9.9716   -0.1397 H   0  0  0  0  0  0  0  0  0  0  0  0
    4.4786   -3.7947    2.4500 H   0  0  0  0  0  0  0  0  0  0  0  0
    5.8437   -3.4003    4.4514 H   0  0  0  0  0  0  0  0  0  0  0  0
    7.1787   -1.4477    0.1296 H   0  0  0  0  0  0  0  0  0  0  0  0
    9.7869   -1.3782    2.0623 H   0  0  0  0  0  0  0  0  0  0  0  0
    8.8396    0.1429    1.9573 H   0  0  0  0  0  0  0  0  0  0  0  0
    9.9666   -0.7641    4.3397 H   0  0  0  0  0  0  0  0  0  0  0  0
    8.4599    0.2094    4.2902 H   0  0  0  0  0  0  0  0  0  0  0  0
    4.4504   -0.1236   -0.0431 H   0  0  0  0  0  0  0  0  0  0  0  0
    4.9013   -8.6486   -0.1035 H   0  0  0  0  0  0  0  0  0  0  0  0
  1  6  2  0  0  0  0
  1  2  1  0  0  0  0
  1 36  1  0  0  0  0
  2  3  2  0  0  0  0
  2 37  1  0  0  0  0
  3  4  1  0  0  0  0
  3 38  1  0  0  0  0
  4 10  1  0  0  0  0
  4  5  2  0  0  0  0
  5  6  1  0  0  0  0
  5  7  1  0  0  0  0
  6 39  1  0  0  0  0
  7  8  1  0  0  0  0
  7 35  2  0  0  0  0
  8 13  1  0  0  0  0
  8  9  2  0  0  0  0
  9 10  1  0  0  0  0
  9 11  1  0  0  0  0
 10 57  1  0  0  0  0
 11 12  1  0  0  0  0
 11 26  1  0  0  0  0
 11 40  1  0  0  0  0
 12 13  1  0  0  0  0
 12 14  1  0  0  0  0
 13 41  1  0  0  0  0
 13 42  1  0  0  0  0
 14 19  2  0  0  0  0
 14 15  1  0  0  0  0
 15 16  2  0  0  0  0
 15 43  1  0  0  0  0
 16 17  1  0  0  0  0
 16 44  1  0  0  0  0
 17 18  2  0  0  0  0
 17 20  1  0  0  0  0
 18 19  1  0  0  0  0
 18 58  1  0  0  0  0
 19 45  1  0  0  0  0
 20 25  2  0  0  0  0
 20 21  1  0  0  0  0
 21 22  2  0  0  0  0
 21 46  1  0  0  0  0
 22 23  1  0  0  0  0
 22 47  1  0  0  0  0
 23 24  2  0  0  0  0
 23 48  1  0  0  0  0
 24 25  1  0  0  0  0
 24 49  1  0  0  0  0
 26 31  2  0  0  0  0
 26 27  1  0  0  0  0
 27 28  2  0  0  0  0
 27 50  1  0  0  0  0
 28 29  1  0  0  0  0
 28 51  1  0  0  0  0
 29 34  1  0  0  0  0
 29 30  2  0  0  0  0
 30 31  1  0  0  0  0
 30 32  1  0  0  0  0
 31 52  1  0  0  0  0
 32 33  1  0  0  0  0
 32 53  1  0  0  0  0
 32 54  1  0  0  0  0
 33 34  1  0  0  0  0
 33 55  1  0  0  0  0
 33 56  1  0  0  0  0
M  CHG  1  18   1
M  END
$$$$
CHEMBL369259
  -OEChem-07121202283D

 57 63  0     1  0  0  0  0  0999 V2000
   -0.0165    1.3628    0.0095 C   0  0  0  0  0  0  0  0  0  0  0  0
    1.1698    2.0838    0.0021 C   0  0  0  0  0  0  0  0  0  0  0  0
    2.3862    1.4376   -0.0135 C   0  0  0  0  0  0  0  0  0  0  0  0
    2.4284    0.0458   -0.0214 C   0  0  0  0  0  0  0  0  0  0  0  0
    1.2231   -0.6777   -0.0133 C   0  0  0  0  0  0  0  0  0  0  0  0
    0.0021   -0.0041    0.0020 C   0  0  0  0  0  0  0  0  0  0  0  0
    1.2934   -2.1480   -0.0219 C   0  0  0  0  0  0  0  0  0  0  0  0
    2.5744   -2.7535   -0.0380 C   0  0  0  0  0  0  0  0  0  0  0  0
    3.6874   -1.9921   -0.0449 C   0  0  0  0  0  0  0  0  0  0  0  0
    3.6240   -0.6315   -0.0374 N   0  0  0  0  0  0  0  0  0  0  0  0
    4.9010   -2.8944   -0.0614 C   0  0  1  0  0  0  0  0  0  0  0  0
    4.4244   -4.2808   -0.0638 N   0  0  3  0  0  0  0  0  0  0  0  0
    2.9595   -4.2121   -0.0492 C   0  0  0  0  0  0  0  0  0  0  0  0
    5.2080   -5.4351   -0.0783 C   0  0  0  0  0  0  0  0  0  0  0  0
    4.6092   -6.6942   -0.0846 C   0  0  0  0  0  0  0  0  0  0  0  0
    5.4241   -7.8108   -0.0989 C   0  0  0  0  0  0  0  0  0  0  0  0
    6.8077   -7.6417   -0.1065 C   0  0  0  0  0  0  0  0  0  0  0  0
    7.3421   -6.4275   -0.0997 N   0  0  0  0  0  0  0  0  0  0  0  0
    6.5956   -5.3435   -0.0924 C   0  0  0  0  0  0  0  0  0  0  0  0
    7.6919   -8.8320   -0.1219 C   0  0  0  0  0  0  0  0  0  0  0  0
    9.0755   -8.6652   -0.1238 C   0  0  0  0  0  0  0  0  0  0  0  0
    9.8878   -9.7856   -0.1382 C   0  0  0  0  0  0  0  0  0  0  0  0
    9.2893  -11.0377   -0.1502 C   0  0  0  0  0  0  0  0  0  0  0  0
    7.9097  -11.1300   -0.1475 C   0  0  0  0  0  0  0  0  0  0  0  0
    7.1594  -10.0473   -0.1282 N   0  0  0  0  0  0  0  0  0  0  0  0
    5.7160   -2.6321   -1.3016 C   0  0  0  0  0  0  0  0  0  0  0  0
    5.3175   -3.1566   -2.5175 C   0  0  0  0  0  0  0  0  0  0  0  0
    6.0575   -2.9160   -3.6564 C   0  0  0  0  0  0  0  0  0  0  0  0
    7.2137   -2.1421   -3.5913 C   0  0  0  0  0  0  0  0  0  0  0  0
    7.6077   -1.6269   -2.3632 C   0  0  0  0  0  0  0  0  0  0  0  0
    6.8623   -1.8609   -1.2287 C   0  0  0  0  0  0  0  0  0  0  0  0
    8.8947   -0.8593   -2.5955 C   0  0  0  0  0  0  0  0  0  0  0  0
    9.3231   -1.3682   -3.9922 C   0  0  0  0  0  0  0  0  0  0  0  0
    8.0751   -1.7745   -4.5793 O   0  0  0  0  0  0  0  0  0  0  0  0
    0.2786   -2.8253   -0.0151 O   0  0  0  0  0  0  0  0  0  0  0  0
   -0.9613    1.8858    0.0259 H   0  0  0  0  0  0  0  0  0  0  0  0
    1.1386    3.1633    0.0082 H   0  0  0  0  0  0  0  0  0  0  0  0
    3.3032    2.0080   -0.0199 H   0  0  0  0  0  0  0  0  0  0  0  0
   -0.9242   -0.5595    0.0083 H   0  0  0  0  0  0  0  0  0  0  0  0
    5.5079   -2.7138    0.8259 H   0  0  0  0  0  0  0  0  0  0  0  0
    2.5749   -4.7034    0.8446 H   0  0  0  0  0  0  0  0  0  0  0  0
    2.5575   -4.6942   -0.9403 H   0  0  0  0  0  0  0  0  0  0  0  0
    3.5339   -6.7948   -0.0780 H   0  0  0  0  0  0  0  0  0  0  0  0
    4.9942   -8.8016   -0.1037 H   0  0  0  0  0  0  0  0  0  0  0  0
    7.0663   -4.3714   -0.0925 H   0  0  0  0  0  0  0  0  0  0  0  0
    9.5077   -7.6755   -0.1145 H   0  0  0  0  0  0  0  0  0  0  0  0
   10.9634   -9.6878   -0.1403 H   0  0  0  0  0  0  0  0  0  0  0  0
    9.8954  -11.9315   -0.1619 H   0  0  0  0  0  0  0  0  0  0  0  0
    7.4409  -12.1029   -0.1572 H   0  0  0  0  0  0  0  0  0  0  0  0
    4.4224   -3.7581   -2.5755 H   0  0  0  0  0  0  0  0  0  0  0  0
    5.7390   -3.3290   -4.6021 H   0  0  0  0  0  0  0  0  0  0  0  0
    7.1746   -1.4455   -0.2820 H   0  0  0  0  0  0  0  0  0  0  0  0
    8.7100    0.2148   -2.6121 H   0  0  0  0  0  0  0  0  0  0  0  0
    9.6409   -1.1132   -1.8427 H   0  0  0  0  0  0  0  0  0  0  0  0
    9.7796   -0.5661   -4.5722 H   0  0  0  0  0  0  0  0  0  0  0  0
   10.0020   -2.2162   -3.9028 H   0  0  0  0  0  0  0  0  0  0  0  0
    4.4504   -0.1236   -0.0431 H   0  0  0  0  0  0  0  0  0  0  0  0
  1  6  2  0  0  0  0
  1  2  1  0  0  0  0
  1 36  1  0  0  0  0
  2  3  2  0  0  0  0
  2 37  1  0  0  0  0
  3  4  1  0  0  0  0
  3 38  1  0  0  0  0
  4 10  1  0  0  0  0
  4  5  2  0  0  0  0
  5  6  1  0  0  0  0
  5  7  1  0  0  0  0
  6 39  1  0  0  0  0
  7  8  1  0  0  0  0
  7 35  2  0  0  0  0
  8 13  1  0  0  0  0
  8  9  2  0  0  0  0
  9 10  1  0  0  0  0
  9 11  1  0  0  0  0
 10 57  1  0  0  0  0
 11 12  1  0  0  0  0
 11 26  1  0  0  0  0
 11 40  1  0  0  0  0
 12 13  1  0  0  0  0
 12 14  1  0  0  0  0
 13 41  1  0  0  0  0
 13 42  1  0  0  0  0
 14 19  2  0  0  0  0
 14 15  1  0  0  0  0
 15 16  2  0  0  0  0
 15 43  1  0  0  0  0
 16 17  1  0  0  0  0
 16 44  1  0  0  0  0
 17 18  2  0  0  0  0
 17 20  1  0  0  0  0
 18 19  1  0  0  0  0
 19 45  1  0  0  0  0
 20 25  2  0  0  0  0
 20 21  1  0  0  0  0
 21 22  2  0  0  0  0
 21 46  1  0  0  0  0
 22 23  1  0  0  0  0
 22 47  1  0  0  0  0
 23 24  2  0  0  0  0
 23 48  1  0  0  0  0
 24 25  1  0  0  0  0
 24 49  1  0  0  0  0
 26 31  2  0  0  0  0
 26 27  1  0  0  0  0
 27 28  2  0  0  0  0
 27 50  1  0  0  0  0
 28 29  1  0  0  0  0
 28 51  1  0  0  0  0
 29 34  1  0  0  0  0
 29 30  2  0  0  0  0
 30 31  1  0  0  0  0
 30 32  1  0  0  0  0
 31 52  1  0  0  0  0
 32 33  1  0  0  0  0
 32 53  1  0  0  0  0
 32 54  1  0  0  0  0
 33 34  1  0  0  0  0
 33 55  1  0  0  0  0
 33 56  1  0  0  0  0
M  END
$$$$
CHEMBL369259
  -OEChem-07121202283D

 58 64  0     1  0  0  0  0  0999 V2000
   -0.0165    1.3628    0.0095 C   0  0  0  0  0  0  0  0  0  0  0  0
    1.1698    2.0838    0.0021 C   0  0  0  0  0  0  0  0  0  0  0  0
    2.3862    1.4376   -0.0135 C   0  0  0  0  0  0  0  0  0  0  0  0
    2.4284    0.0458   -0.0214 C   0  0  0  0  0  0  0  0  0  0  0  0
    1.2231   -0.6777   -0.0133 C   0  0  0  0  0  0  0  0  0  0  0  0
    0.0021   -0.0041    0.0020 C   0  0  0  0  0  0  0  0  0  0  0  0
    1.2934   -2.1480   -0.0219 C   0  0  0  0  0  0  0  0  0  0  0  0
    2.5744   -2.7535   -0.0380 C   0  0  0  0  0  0  0  0  0  0  0  0
    3.6874   -1.9921   -0.0449 C   0  0  0  0  0  0  0  0  0  0  0  0
    3.6240   -0.6315   -0.0374 N   0  0  0  0  0  0  0  0  0  0  0  0
    4.9010   -2.8944   -0.0614 C   0  0  1  0  0  0  0  0  0  0  0  0
    4.4244   -4.2808   -0.0638 N   0  0  3  0  0  0  0  0  0  0  0  0
    2.9595   -4.2121   -0.0492 C   0  0  0  0  0  0  0  0  0  0  0  0
    5.2080   -5.4351   -0.0783 C   0  0  0  0  0  0  0  0  0  0  0  0
    4.6092   -6.6942   -0.0846 C   0  0  0  0  0  0  0  0  0  0  0  0
    5.4241   -7.8108   -0.0989 C   0  0  0  0  0  0  0  0  0  0  0  0
    6.8077   -7.6417   -0.1065 C   0  0  0  0  0  0  0  0  0  0  0  0
    7.3421   -6.4275   -0.0997 N   0  0  0  0  0  0  0  0  0  0  0  0
    6.5956   -5.3435   -0.0924 C   0  0  0  0  0  0  0  0  0  0  0  0
    7.6919   -8.8320   -0.1219 C   0  0  0  0  0  0  0  0  0  0  0  0
    9.0755   -8.6652   -0.1238 C   0  0  0  0  0  0  0  0  0  0  0  0
    9.8878   -9.7856   -0.1382 C   0  0  0  0  0  0  0  0  0  0  0  0
    9.2893  -11.0377   -0.1502 C   0  0  0  0  0  0  0  0  0  0  0  0
    7.9097  -11.1300   -0.1475 C   0  0  0  0  0  0  0  0  0  0  0  0
    7.1594  -10.0473   -0.1282 N   0  3  0  0  0  0  0  0  0  0  0  0
    5.7160   -2.6321   -1.3016 C   0  0  0  0  0  0  0  0  0  0  0  0
    5.3175   -3.1566   -2.5175 C   0  0  0  0  0  0  0  0  0  0  0  0
    6.0575   -2.9160   -3.6564 C   0  0  0  0  0  0  0  0  0  0  0  0
    7.2137   -2.1421   -3.5913 C   0  0  0  0  0  0  0  0  0  0  0  0
    7.6077   -1.6269   -2.3632 C   0  0  0  0  0  0  0  0  0  0  0  0
    6.8623   -1.8609   -1.2287 C   0  0  0  0  0  0  0  0  0  0  0  0
    8.8947   -0.8593   -2.5955 C   0  0  0  0  0  0  0  0  0  0  0  0
    9.3231   -1.3682   -3.9922 C   0  0  0  0  0  0  0  0  0  0  0  0
    8.0751   -1.7745   -4.5793 O   0  0  0  0  0  0  0  0  0  0  0  0
    0.2786   -2.8253   -0.0151 O   0  0  0  0  0  0  0  0  0  0  0  0
   -0.9613    1.8858    0.0259 H   0  0  0  0  0  0  0  0  0  0  0  0
    1.1386    3.1633    0.0082 H   0  0  0  0  0  0  0  0  0  0  0  0
    3.3032    2.0080   -0.0199 H   0  0  0  0  0  0  0  0  0  0  0  0
   -0.9242   -0.5595    0.0083 H   0  0  0  0  0  0  0  0  0  0  0  0
    5.5079   -2.7138    0.8259 H   0  0  0  0  0  0  0  0  0  0  0  0
    2.5749   -4.7034    0.8446 H   0  0  0  0  0  0  0  0  0  0  0  0
    2.5575   -4.6942   -0.9403 H   0  0  0  0  0  0  0  0  0  0  0  0
    3.5339   -6.7948   -0.0780 H   0  0  0  0  0  0  0  0  0  0  0  0
    4.9942   -8.8016   -0.1037 H   0  0  0  0  0  0  0  0  0  0  0  0
    7.0663   -4.3714   -0.0925 H   0  0  0  0  0  0  0  0  0  0  0  0
    9.5077   -7.6755   -0.1145 H   0  0  0  0  0  0  0  0  0  0  0  0
   10.9634   -9.6878   -0.1403 H   0  0  0  0  0  0  0  0  0  0  0  0
    9.8954  -11.9315   -0.1619 H   0  0  0  0  0  0  0  0  0  0  0  0
    7.4409  -12.1029   -0.1572 H   0  0  0  0  0  0  0  0  0  0  0  0
    4.4224   -3.7581   -2.5755 H   0  0  0  0  0  0  0  0  0  0  0  0
    5.7390   -3.3290   -4.6021 H   0  0  0  0  0  0  0  0  0  0  0  0
    7.1746   -1.4455   -0.2820 H   0  0  0  0  0  0  0  0  0  0  0  0
    8.7100    0.2148   -2.6121 H   0  0  0  0  0  0  0  0  0  0  0  0
    9.6409   -1.1132   -1.8427 H   0  0  0  0  0  0  0  0  0  0  0  0
    9.7796   -0.5661   -4.5722 H   0  0  0  0  0  0  0  0  0  0  0  0
   10.0020   -2.2162   -3.9028 H   0  0  0  0  0  0  0  0  0  0  0  0
    4.4504   -0.1236   -0.0431 H   0  0  0  0  0  0  0  0  0  0  0  0
    6.1939  -10.1408   -0.1227 H   0  0  0  0  0  0  0  0  0  0  0  0
  1  6  2  0  0  0  0
  1  2  1  0  0  0  0
  1 36  1  0  0  0  0
  2  3  2  0  0  0  0
  2 37  1  0  0  0  0
  3  4  1  0  0  0  0
  3 38  1  0  0  0  0
  4 10  1  0  0  0  0
  4  5  2  0  0  0  0
  5  6  1  0  0  0  0
  5  7  1  0  0  0  0
  6 39  1  0  0  0  0
  7  8  1  0  0  0  0
  7 35  2  0  0  0  0
  8 13  1  0  0  0  0
  8  9  2  0  0  0  0
  9 10  1  0  0  0  0
  9 11  1  0  0  0  0
 10 57  1  0  0  0  0
 11 12  1  0  0  0  0
 11 26  1  0  0  0  0
 11 40  1  0  0  0  0
 12 13  1  0  0  0  0
 12 14  1  0  0  0  0
 13 41  1  0  0  0  0
 13 42  1  0  0  0  0
 14 19  2  0  0  0  0
 14 15  1  0  0  0  0
 15 16  2  0  0  0  0
 15 43  1  0  0  0  0
 16 17  1  0  0  0  0
 16 44  1  0  0  0  0
 17 18  2  0  0  0  0
 17 20  1  0  0  0  0
 18 19  1  0  0  0  0
 19 45  1  0  0  0  0
 20 25  2  0  0  0  0
 20 21  1  0  0  0  0
 21 22  2  0  0  0  0
 21 46  1  0  0  0  0
 22 23  1  0  0  0  0
 22 47  1  0  0  0  0
 23 24  2  0  0  0  0
 23 48  1  0  0  0  0
 24 25  1  0  0  0  0
 24 49  1  0  0  0  0
 25 58  1  0  0  0  0
 26 31  2  0  0  0  0
 26 27  1  0  0  0  0
 27 28  2  0  0  0  0
 27 50  1  0  0  0  0
 28 29  1  0  0  0  0
 28 51  1  0  0  0  0
 29 34  1  0  0  0  0
 29 30  2  0  0  0  0
 30 31  1  0  0  0  0
 30 32  1  0  0  0  0
 31 52  1  0  0  0  0
 32 33  1  0  0  0  0
 32 53  1  0  0  0  0
 32 54  1  0  0  0  0
 33 34  1  0  0  0  0
 33 55  1  0  0  0  0
 33 56  1  0  0  0  0
M  CHG  1  25   1
M  END
$$$$
CHEMBL369259
  -OEChem-07121202283D

 58 64  0     1  0  0  0  0  0999 V2000
   -0.0165    1.3628    0.0095 C   0  0  0  0  0  0  0  0  0  0  0  0
    1.1698    2.0838    0.0021 C   0  0  0  0  0  0  0  0  0  0  0  0
    2.3862    1.4376   -0.0135 C   0  0  0  0  0  0  0  0  0  0  0  0
    2.4284    0.0458   -0.0214 C   0  0  0  0  0  0  0  0  0  0  0  0
    1.2231   -0.6777   -0.0133 C   0  0  0  0  0  0  0  0  0  0  0  0
    0.0021   -0.0041    0.0020 C   0  0  0  0  0  0  0  0  0  0  0  0
    1.2934   -2.1480   -0.0219 C   0  0  0  0  0  0  0  0  0  0  0  0
    2.5744   -2.7535   -0.0380 C   0  0  0  0  0  0  0  0  0  0  0  0
    3.6874   -1.9921   -0.0449 C   0  0  0  0  0  0  0  0  0  0  0  0
    3.6240   -0.6315   -0.0374 N   0  0  0  0  0  0  0  0  0  0  0  0
    4.9010   -2.8944   -0.0614 C   0  0  1  0  0  0  0  0  0  0  0  0
    4.4244   -4.2808   -0.0638 N   0  0  3  0  0  0  0  0  0  0  0  0
    2.9595   -4.2121   -0.0492 C   0  0  0  0  0  0  0  0  0  0  0  0
    5.2080   -5.4351   -0.0783 C   0  0  0  0  0  0  0  0  0  0  0  0
    6.5992   -5.3433   -0.0866 C   0  0  0  0  0  0  0  0  0  0  0  0
    7.3362   -6.5128   -0.1010 C   0  0  0  0  0  0  0  0  0  0  0  0
    6.6684   -7.7363   -0.1065 C   0  0  0  0  0  0  0  0  0  0  0  0
    5.3426   -7.7848   -0.0987 N   0  3  0  0  0  0  0  0  0  0  0  0
    4.6107   -6.6910   -0.0788 C   0  0  0  0  0  0  0  0  0  0  0  0
    7.4483   -8.9974   -0.1219 C   0  0  0  0  0  0  0  0  0  0  0  0
    6.7825  -10.2216   -0.1332 C   0  0  0  0  0  0  0  0  0  0  0  0
    7.5240  -11.3902   -0.1475 C   0  0  0  0  0  0  0  0  0  0  0  0
    8.9086  -11.2962   -0.1500 C   0  0  0  0  0  0  0  0  0  0  0  0
    9.5036  -10.0481   -0.1382 C   0  0  0  0  0  0  0  0  0  0  0  0
    8.7742   -8.9510   -0.1302 N   0  0  0  0  0  0  0  0  0  0  0  0
    5.7160   -2.6321   -1.3016 C   0  0  0  0  0  0  0  0  0  0  0  0
    5.3175   -3.1566   -2.5175 C   0  0  0  0  0  0  0  0  0  0  0  0
    6.0575   -2.9160   -3.6564 C   0  0  0  0  0  0  0  0  0  0  0  0
    7.2137   -2.1421   -3.5913 C   0  0  0  0  0  0  0  0  0  0  0  0
    7.6077   -1.6269   -2.3632 C   0  0  0  0  0  0  0  0  0  0  0  0
    6.8623   -1.8609   -1.2287 C   0  0  0  0  0  0  0  0  0  0  0  0
    8.8947   -0.8593   -2.5955 C   0  0  0  0  0  0  0  0  0  0  0  0
    9.3231   -1.3682   -3.9922 C   0  0  0  0  0  0  0  0  0  0  0  0
    8.0751   -1.7745   -4.5793 O   0  0  0  0  0  0  0  0  0  0  0  0
    0.2786   -2.8253   -0.0151 O   0  0  0  0  0  0  0  0  0  0  0  0
   -0.9613    1.8858    0.0259 H   0  0  0  0  0  0  0  0  0  0  0  0
    1.1386    3.1633    0.0082 H   0  0  0  0  0  0  0  0  0  0  0  0
    3.3032    2.0080   -0.0199 H   0  0  0  0  0  0  0  0  0  0  0  0
   -0.9242   -0.5595    0.0083 H   0  0  0  0  0  0  0  0  0  0  0  0
    5.5079   -2.7138    0.8259 H   0  0  0  0  0  0  0  0  0  0  0  0
    2.5749   -4.7034    0.8446 H   0  0  0  0  0  0  0  0  0  0  0  0
    2.5575   -4.6942   -0.9403 H   0  0  0  0  0  0  0  0  0  0  0  0
    7.0896   -4.3810   -0.0824 H   0  0  0  0  0  0  0  0  0  0  0  0
    8.4157   -6.4789   -0.1081 H   0  0  0  0  0  0  0  0  0  0  0  0
    3.5337   -6.7698   -0.0675 H   0  0  0  0  0  0  0  0  0  0  0  0
    5.7031  -10.2580   -0.1305 H   0  0  0  0  0  0  0  0  0  0  0  0
    7.0360  -12.3536   -0.1561 H   0  0  0  0  0  0  0  0  0  0  0  0
    9.5156  -12.1894   -0.1606 H   0  0  0  0  0  0  0  0  0  0  0  0
   10.5809   -9.9716   -0.1397 H   0  0  0  0  0  0  0  0  0  0  0  0
    4.4224   -3.7581   -2.5755 H   0  0  0  0  0  0  0  0  0  0  0  0
    5.7390   -3.3290   -4.6021 H   0  0  0  0  0  0  0  0  0  0  0  0
    7.1746   -1.4455   -0.2820 H   0  0  0  0  0  0  0  0  0  0  0  0
    8.7100    0.2148   -2.6121 H   0  0  0  0  0  0  0  0  0  0  0  0
    9.6409   -1.1132   -1.8427 H   0  0  0  0  0  0  0  0  0  0  0  0
    9.7796   -0.5661   -4.5722 H   0  0  0  0  0  0  0  0  0  0  0  0
   10.0020   -2.2162   -3.9028 H   0  0  0  0  0  0  0  0  0  0  0  0
    4.4504   -0.1236   -0.0431 H   0  0  0  0  0  0  0  0  0  0  0  0
    4.9013   -8.6486   -0.1035 H   0  0  0  0  0  0  0  0  0  0  0  0
  1  6  2  0  0  0  0
  1  2  1  0  0  0  0
  1 36  1  0  0  0  0
  2  3  2  0  0  0  0
  2 37  1  0  0  0  0
  3  4  1  0  0  0  0
  3 38  1  0  0  0  0
  4 10  1  0  0  0  0
  4  5  2  0  0  0  0
  5  6  1  0  0  0  0
  5  7  1  0  0  0  0
  6 39  1  0  0  0  0
  7  8  1  0  0  0  0
  7 35  2  0  0  0  0
  8 13  1  0  0  0  0
  8  9  2  0  0  0  0
  9 10  1  0  0  0  0
  9 11  1  0  0  0  0
 10 57  1  0  0  0  0
 11 12  1  0  0  0  0
 11 26  1  0  0  0  0
 11 40  1  0  0  0  0
 12 13  1  0  0  0  0
 12 14  1  0  0  0  0
 13 41  1  0  0  0  0
 13 42  1  0  0  0  0
 14 19  2  0  0  0  0
 14 15  1  0  0  0  0
 15 16  2  0  0  0  0
 15 43  1  0  0  0  0
 16 17  1  0  0  0  0
 16 44  1  0  0  0  0
 17 18  2  0  0  0  0
 17 20  1  0  0  0  0
 18 19  1  0  0  0  0
 18 58  1  0  0  0  0
 19 45  1  0  0  0  0
 20 25  2  0  0  0  0
 20 21  1  0  0  0  0
 21 22  2  0  0  0  0
 21 46  1  0  0  0  0
 22 23  1  0  0  0  0
 22 47  1  0  0  0  0
 23 24  2  0  0  0  0
 23 48  1  0  0  0  0
 24 25  1  0  0  0  0
 24 49  1  0  0  0  0
 26 31  2  0  0  0  0
 26 27  1  0  0  0  0
 27 28  2  0  0  0  0
 27 50  1  0  0  0  0
 28 29  1  0  0  0  0
 28 51  1  0  0  0  0
 29 34  1  0  0  0  0
 29 30  2  0  0  0  0
 30 31  1  0  0  0  0
 30 32  1  0  0  0  0
 31 52  1  0  0  0  0
 32 33  1  0  0  0  0
 32 53  1  0  0  0  0
 32 54  1  0  0  0  0
 33 34  1  0  0  0  0
 33 55  1  0  0  0  0
 33 56  1  0  0  0  0
M  CHG  1  18   1
M  END
$$$$
CHEMBL168949
  -OEChem-07121202283D

 63 66  0     0  0  0  0  0  0999 V2000
   -0.0187    1.5258    0.0104 C   0  0  0  0  0  0  0  0  0  0  0  0
    0.0021   -0.0041    0.0020 C   0  0  0  0  0  0  0  0  0  0  0  0
   -1.4333   -0.5336    0.0129 C   0  0  0  0  0  0  0  0  0  0  0  0
   -1.4129   -2.0405    0.0046 C   0  0  0  0  0  0  0  0  0  0  0  0
   -1.4071   -2.7929   -1.0707 N   0  0  0  0  0  0  0  0  0  0  0  0
   -1.3877   -4.0800   -0.7214 C   0  0  0  0  0  0  0  0  0  0  0  0
   -1.3810   -4.1322    0.6504 C   0  0  0  0  0  0  0  0  0  0  0  0
   -1.3919   -2.8210    1.0945 N   0  0  0  0  0  0  0  0  0  0  0  0
   -1.3832   -2.5699    2.4695 N   0  0  0  0  0  0  0  0  0  0  0  0
   -1.3620   -3.5449    3.3321 C   0  0  0  0  0  0  0  0  0  0  0  0
   -1.3466   -4.8711    2.9502 N   0  0  0  0  0  0  0  0  0  0  0  0
   -1.3310   -5.5667    3.6261 H   0  0  0  0  0  0  0  0  0  0  0  0
   -1.3621   -5.2077    1.6407 C   0  0  0  0  0  0  0  0  0  0  0  0
   -1.3478   -6.3752    1.2954 O   0  0  0  0  0  0  0  0  0  0  0  0
   -1.3537   -3.2195    4.7733 C   0  0  0  0  0  0  0  0  0  0  0  0
   -1.3254   -4.2417    5.7231 C   0  0  0  0  0  0  0  0  0  0  0  0
   -1.3178   -3.9318    7.0668 C   0  0  0  0  0  0  0  0  0  0  0  0
   -1.3382   -2.6100    7.4784 C   0  0  0  0  0  0  0  0  0  0  0  0
   -1.3663   -1.5892    6.5478 C   0  0  0  0  0  0  0  0  0  0  0  0
   -1.3684   -1.8838    5.1935 C   0  0  0  0  0  0  0  0  0  0  0  0
   -1.3904   -0.8814    4.2779 O   0  0  0  0  0  0  0  0  0  0  0  0
   -1.4044    0.4562    4.7806 C   0  0  0  0  0  0  0  0  0  0  0  0
   -1.4284    1.4408    3.6097 C   0  0  0  0  0  0  0  0  0  0  0  0
   -1.2826   -5.2233    8.2649 S   0  0  0  0  0  0  0  0  0  0  0  0
   -1.8316   -4.6842    9.4596 O   0  0  0  0  0  0  0  0  0  0  0  0
   -1.8188   -6.3779    7.6334 O   0  0  0  0  0  0  0  0  0  0  0  0
    0.3088   -5.5535    8.5823 N   0  0  0  0  0  0  0  0  0  0  0  0
    1.0424   -6.5581    7.7975 C   0  0  0  0  0  0  0  0  0  0  0  0
    2.3464   -5.9276    7.2972 C   0  0  0  0  0  0  0  0  0  0  0  0
    3.0855   -5.3691    8.4372 N   0  0  0  0  0  0  0  0  0  0  0  0
    2.3307   -4.2869    9.0830 C   0  0  0  0  0  0  0  0  0  0  0  0
    1.0278   -4.8457    9.6525 C   0  0  0  0  0  0  0  0  0  0  0  0
    4.4185   -4.9086    8.0259 C   0  0  0  0  0  0  0  0  0  0  0  0
   -1.3758   -5.2593   -1.6596 C   0  0  0  0  0  0  0  0  0  0  0  0
    1.0039    1.9031    0.0027 H   0  0  0  0  0  0  0  0  0  0  0  0
   -0.5459    1.8868   -0.8726 H   0  0  0  0  0  0  0  0  0  0  0  0
   -0.5289    1.8773    0.9072 H   0  0  0  0  0  0  0  0  0  0  0  0
    0.5123   -0.3556   -0.8948 H   0  0  0  0  0  0  0  0  0  0  0  0
    0.5293   -0.3651    0.8851 H   0  0  0  0  0  0  0  0  0  0  0  0
   -1.9435   -0.1821    0.9097 H   0  0  0  0  0  0  0  0  0  0  0  0
   -1.9605   -0.1726   -0.8702 H   0  0  0  0  0  0  0  0  0  0  0  0
   -1.3098   -5.2740    5.4062 H   0  0  0  0  0  0  0  0  0  0  0  0
   -1.3324   -2.3756    8.5327 H   0  0  0  0  0  0  0  0  0  0  0  0
   -1.3821   -0.5605    6.8761 H   0  0  0  0  0  0  0  0  0  0  0  0
   -2.2911    0.6033    5.3972 H   0  0  0  0  0  0  0  0  0  0  0  0
   -0.5114    0.6279    5.3815 H   0  0  0  0  0  0  0  0  0  0  0  0
   -2.3214    1.2691    3.0088 H   0  0  0  0  0  0  0  0  0  0  0  0
   -1.4391    2.4610    3.9931 H   0  0  0  0  0  0  0  0  0  0  0  0
   -0.5417    1.2936    2.9931 H   0  0  0  0  0  0  0  0  0  0  0  0
    1.2696   -7.4192    8.4259 H   0  0  0  0  0  0  0  0  0  0  0  0
    0.4373   -6.8715    6.9468 H   0  0  0  0  0  0  0  0  0  0  0  0
    2.9540   -6.6887    6.8075 H   0  0  0  0  0  0  0  0  0  0  0  0
    2.1172   -5.1326    6.5876 H   0  0  0  0  0  0  0  0  0  0  0  0
    2.9269   -3.8580    9.8884 H   0  0  0  0  0  0  0  0  0  0  0  0
    2.1018   -3.5147    8.3486 H   0  0  0  0  0  0  0  0  0  0  0  0
    0.4130   -4.0276   10.0276 H   0  0  0  0  0  0  0  0  0  0  0  0
    1.2536   -5.5391   10.4626 H   0  0  0  0  0  0  0  0  0  0  0  0
    4.3168   -4.1365    7.2632 H   0  0  0  0  0  0  0  0  0  0  0  0
    4.9440   -4.4999    8.8889 H   0  0  0  0  0  0  0  0  0  0  0  0
    4.9836   -5.7478    7.6203 H   0  0  0  0  0  0  0  0  0  0  0  0
   -0.3454   -5.5297   -1.8903 H   0  0  0  0  0  0  0  0  0  0  0  0
   -1.8762   -6.1045   -1.1871 H   0  0  0  0  0  0  0  0  0  0  0  0
   -1.8973   -4.9966   -2.5800 H   0  0  0  0  0  0  0  0  0  0  0  0
  1  2  1  0  0  0  0
  1 35  1  0  0  0  0
  1 36  1  0  0  0  0
  1 37  1  0  0  0  0
  2  3  1  0  0  0  0
  2 38  1  0  0  0  0
  2 39  1  0  0  0  0
  3  4  1  0  0  0  0
  3 40  1  0  0  0  0
  3 41  1  0  0  0  0
  4  8  1  0  0  0  0
  4  5  2  0  0  0  0
  5  6  1  0  0  0  0
  6  7  2  0  0  0  0
  6 34  1  0  0  0  0
  7 13  1  0  0  0  0
  7  8  1  0  0  0  0
  8  9  1  0  0  0  0
  9 10  2  0  0  0  0
 10 11  1  0  0  0  0
 10 15  1  0  0  0  0
 11 12  1  0  0  0  0
 11 13  1  0  0  0  0
 13 14  2  0  0  0  0
 15 20  2  0  0  0  0
 15 16  1  0  0  0  0
 16 17  2  0  0  0  0
 16 42  1  0  0  0  0
 17 18  1  0  0  0  0
 17 24  1  0  0  0  0
 18 19  2  0  0  0  0
 18 43  1  0  0  0  0
 19 20  1  0  0  0  0
 19 44  1  0  0  0  0
 20 21  1  0  0  0  0
 21 22  1  0  0  0  0
 22 23  1  0  0  0  0
 22 45  1  0  0  0  0
 22 46  1  0  0  0  0
 23 47  1  0  0  0  0
 23 48  1  0  0  0  0
 23 49  1  0  0  0  0
 24 25  2  0  0  0  0
 24 26  2  0  0  0  0
 24 27  1  0  0  0  0
 27 32  1  0  0  0  0
 27 28  1  0  0  0  0
 28 29  1  0  0  0  0
 28 50  1  0  0  0  0
 28 51  1  0  0  0  0
 29 30  1  0  0  0  0
 29 52  1  0  0  0  0
 29 53  1  0  0  0  0
 30 31  1  0  0  0  0
 30 33  1  0  0  0  0
 31 32  1  0  0  0  0
 31 54  1  0  0  0  0
 31 55  1  0  0  0  0
 32 56  1  0  0  0  0
 32 57  1  0  0  0  0
 33 58  1  0  0  0  0
 33 59  1  0  0  0  0
 33 60  1  0  0  0  0
 34 61  1  0  0  0  0
 34 62  1  0  0  0  0
 34 63  1  0  0  0  0
M  END
$$$$
CHEMBL168949
  -OEChem-07121202283D

 62 65  0     0  0  0  0  0  0999 V2000
   -0.0187    1.5258    0.0104 C   0  0  0  0  0  0  0  0  0  0  0  0
    0.0021   -0.0041    0.0020 C   0  0  0  0  0  0  0  0  0  0  0  0
   -1.4333   -0.5336    0.0129 C   0  0  0  0  0  0  0  0  0  0  0  0
   -1.4129   -2.0405    0.0046 C   0  0  0  0  0  0  0  0  0  0  0  0
   -1.4071   -2.7931   -1.0712 N   0  0  0  0  0  0  0  0  0  0  0  0
   -1.3882   -4.0792   -0.7236 C   0  0  0  0  0  0  0  0  0  0  0  0
   -1.3817   -4.1334    0.6527 C   0  0  0  0  0  0  0  0  0  0  0  0
   -1.3919   -2.8203    1.0938 N   0  0  0  0  0  0  0  0  0  0  0  0
   -1.3825   -2.5794    2.4721 N   0  0  0  0  0  0  0  0  0  0  0  0
   -1.3611   -3.5896    3.3115 C   0  0  0  0  0  0  0  0  0  0  0  0
   -1.3477   -4.8635    2.8932 N   0  0  0  0  0  0  0  0  0  0  0  0
   -1.3637   -5.1706    1.6102 C   0  0  0  0  0  0  0  0  0  0  0  0
   -1.3482   -6.4650    1.2164 O   0  5  0  0  0  0  0  0  0  0  0  0
   -1.3510   -3.3124    4.7674 C   0  0  0  0  0  0  0  0  0  0  0  0
   -1.3226   -4.3652    5.6804 C   0  0  0  0  0  0  0  0  0  0  0  0
   -1.3133   -4.1018    7.0345 C   0  0  0  0  0  0  0  0  0  0  0  0
   -1.3321   -2.7951    7.4910 C   0  0  0  0  0  0  0  0  0  0  0  0
   -1.3608   -1.7438    6.5951 C   0  0  0  0  0  0  0  0  0  0  0  0
   -1.3641   -1.9932    5.2316 C   0  0  0  0  0  0  0  0  0  0  0  0
   -1.3862   -0.9606    4.3499 O   0  0  0  0  0  0  0  0  0  0  0  0
   -1.3985    0.3595    4.8970 C   0  0  0  0  0  0  0  0  0  0  0  0
   -1.4229    1.3826    3.7597 C   0  0  0  0  0  0  0  0  0  0  0  0
   -1.2780   -5.4337    8.1875 S   0  0  0  0  0  0  0  0  0  0  0  0
   -1.8252   -4.9355    9.4005 O   0  0  0  0  0  0  0  0  0  0  0  0
   -1.8158   -6.5654    7.5173 O   0  0  0  0  0  0  0  0  0  0  0  0
    0.3135   -5.7760    8.4916 N   0  0  0  0  0  0  0  0  0  0  0  0
    1.0454   -6.7536    7.6720 C   0  0  0  0  0  0  0  0  0  0  0  0
    2.3494   -6.1074    7.1922 C   0  0  0  0  0  0  0  0  0  0  0  0
    3.0902   -5.5890    8.3500 N   0  0  0  0  0  0  0  0  0  0  0  0
    2.3371   -4.5289    9.0333 C   0  0  0  0  0  0  0  0  0  0  0  0
    1.0342   -5.1059    9.5847 C   0  0  0  0  0  0  0  0  0  0  0  0
    4.4231   -5.1157    7.9532 C   0  0  0  0  0  0  0  0  0  0  0  0
   -1.3761   -5.2575   -1.6630 C   0  0  0  0  0  0  0  0  0  0  0  0
    1.0039    1.9031    0.0027 H   0  0  0  0  0  0  0  0  0  0  0  0
   -0.5459    1.8868   -0.8726 H   0  0  0  0  0  0  0  0  0  0  0  0
   -0.5289    1.8773    0.9072 H   0  0  0  0  0  0  0  0  0  0  0  0
    0.5123   -0.3556   -0.8948 H   0  0  0  0  0  0  0  0  0  0  0  0
    0.5293   -0.3651    0.8851 H   0  0  0  0  0  0  0  0  0  0  0  0
   -1.9435   -0.1821    0.9097 H   0  0  0  0  0  0  0  0  0  0  0  0
   -1.9605   -0.1726   -0.8702 H   0  0  0  0  0  0  0  0  0  0  0  0
   -1.3082   -5.3860    5.3281 H   0  0  0  0  0  0  0  0  0  0  0  0
   -1.3247   -2.5965    8.5525 H   0  0  0  0  0  0  0  0  0  0  0  0
   -1.3757   -0.7265    6.9575 H   0  0  0  0  0  0  0  0  0  0  0  0
   -2.2844    0.4866    5.5191 H   0  0  0  0  0  0  0  0  0  0  0  0
   -0.5047    0.5103    5.5023 H   0  0  0  0  0  0  0  0  0  0  0  0
   -2.3167    1.2318    3.1543 H   0  0  0  0  0  0  0  0  0  0  0  0
   -1.4323    2.3896    4.1770 H   0  0  0  0  0  0  0  0  0  0  0  0
   -0.5370    1.2555    3.1375 H   0  0  0  0  0  0  0  0  0  0  0  0
    1.2725   -7.6360    8.2702 H   0  0  0  0  0  0  0  0  0  0  0  0
    0.4391   -7.0371    6.8117 H   0  0  0  0  0  0  0  0  0  0  0  0
    2.9558   -6.8517    6.6760 H   0  0  0  0  0  0  0  0  0  0  0  0
    2.1202   -5.2882    6.5106 H   0  0  0  0  0  0  0  0  0  0  0  0
    2.9344   -4.1285    9.8524 H   0  0  0  0  0  0  0  0  0  0  0  0
    2.1080   -3.7317    8.3261 H   0  0  0  0  0  0  0  0  0  0  0  0
    0.4205   -4.3006    9.9884 H   0  0  0  0  0  0  0  0  0  0  0  0
    1.2602   -5.8269   10.3703 H   0  0  0  0  0  0  0  0  0  0  0  0
    4.3213   -4.3178    7.2177 H   0  0  0  0  0  0  0  0  0  0  0  0
    4.9499   -4.7373    8.8292 H   0  0  0  0  0  0  0  0  0  0  0  0
    4.9871   -5.9410    7.5184 H   0  0  0  0  0  0  0  0  0  0  0  0
   -0.3456   -5.5279   -1.8935 H   0  0  0  0  0  0  0  0  0  0  0  0
   -1.8769   -6.1032   -1.1917 H   0  0  0  0  0  0  0  0  0  0  0  0
   -1.8970   -4.9937   -2.5834 H   0  0  0  0  0  0  0  0  0  0  0  0
  1  2  1  0  0  0  0
  1 34  1  0  0  0  0
  1 35  1  0  0  0  0
  1 36  1  0  0  0  0
  2  3  1  0  0  0  0
  2 37  1  0  0  0  0
  2 38  1  0  0  0  0
  3  4  1  0  0  0  0
  3 39  1  0  0  0  0
  3 40  1  0  0  0  0
  4  8  1  0  0  0  0
  4  5  2  0  0  0  0
  5  6  1  0  0  0  0
  6  7  2  0  0  0  0
  6 33  1  0  0  0  0
  7 12  1  0  0  0  0
  7  8  1  0  0  0  0
  8  9  1  0  0  0  0
  9 10  2  0  0  0  0
 10 11  1  0  0  0  0
 10 14  1  0  0  0  0
 11 12  2  0  0  0  0
 12 13  1  0  0  0  0
 14 19  2  0  0  0  0
 14 15  1  0  0  0  0
 15 16  2  0  0  0  0
 15 41  1  0  0  0  0
 16 17  1  0  0  0  0
 16 23  1  0  0  0  0
 17 18  2  0  0  0  0
 17 42  1  0  0  0  0
 18 19  1  0  0  0  0
 18 43  1  0  0  0  0
 19 20  1  0  0  0  0
 20 21  1  0  0  0  0
 21 22  1  0  0  0  0
 21 44  1  0  0  0  0
 21 45  1  0  0  0  0
 22 46  1  0  0  0  0
 22 47  1  0  0  0  0
 22 48  1  0  0  0  0
 23 24  2  0  0  0  0
 23 25  2  0  0  0  0
 23 26  1  0  0  0  0
 26 31  1  0  0  0  0
 26 27  1  0  0  0  0
 27 28  1  0  0  0  0
 27 49  1  0  0  0  0
 27 50  1  0  0  0  0
 28 29  1  0  0  0  0
 28 51  1  0  0  0  0
 28 52  1  0  0  0  0
 29 30  1  0  0  0  0
 29 32  1  0  0  0  0
 30 31  1  0  0  0  0
 30 53  1  0  0  0  0
 30 54  1  0  0  0  0
 31 55  1  0  0  0  0
 31 56  1  0  0  0  0
 32 57  1  0  0  0  0
 32 58  1  0  0  0  0
 32 59  1  0  0  0  0
 33 60  1  0  0  0  0
 33 61  1  0  0  0  0
 33 62  1  0  0  0  0
M  CHG  1  13  -1
M  END
$$$$
CHEMBL168949
  -OEChem-07121202283D

 64 67  0     0  0  0  0  0  0999 V2000
   -0.0187    1.5258    0.0104 C   0  0  0  0  0  0  0  0  0  0  0  0
    0.0021   -0.0041    0.0020 C   0  0  0  0  0  0  0  0  0  0  0  0
   -1.4333   -0.5336    0.0129 C   0  0  0  0  0  0  0  0  0  0  0  0
   -1.4129   -2.0405    0.0046 C   0  0  0  0  0  0  0  0  0  0  0  0
   -1.4071   -2.7929   -1.0707 N   0  0  0  0  0  0  0  0  0  0  0  0
   -1.3877   -4.0800   -0.7214 C   0  0  0  0  0  0  0  0  0  0  0  0
   -1.3810   -4.1322    0.6504 C   0  0  0  0  0  0  0  0  0  0  0  0
   -1.3919   -2.8210    1.0945 N   0  0  0  0  0  0  0  0  0  0  0  0
   -1.3832   -2.5699    2.4695 N   0  0  0  0  0  0  0  0  0  0  0  0
   -1.3620   -3.5449    3.3321 C   0  0  0  0  0  0  0  0  0  0  0  0
   -1.3466   -4.8711    2.9502 N   0  0  0  0  0  0  0  0  0  0  0  0
   -1.3310   -5.5667    3.6261 H   0  0  0  0  0  0  0  0  0  0  0  0
   -1.3621   -5.2077    1.6407 C   0  0  0  0  0  0  0  0  0  0  0  0
   -1.3478   -6.3752    1.2954 O   0  0  0  0  0  0  0  0  0  0  0  0
   -1.3537   -3.2195    4.7733 C   0  0  0  0  0  0  0  0  0  0  0  0
   -1.3254   -4.2417    5.7231 C   0  0  0  0  0  0  0  0  0  0  0  0
   -1.3178   -3.9318    7.0668 C   0  0  0  0  0  0  0  0  0  0  0  0
   -1.3382   -2.6100    7.4784 C   0  0  0  0  0  0  0  0  0  0  0  0
   -1.3663   -1.5892    6.5478 C   0  0  0  0  0  0  0  0  0  0  0  0
   -1.3684   -1.8838    5.1935 C   0  0  0  0  0  0  0  0  0  0  0  0
   -1.3904   -0.8814    4.2779 O   0  0  0  0  0  0  0  0  0  0  0  0
   -1.4044    0.4562    4.7806 C   0  0  0  0  0  0  0  0  0  0  0  0
   -1.4284    1.4408    3.6097 C   0  0  0  0  0  0  0  0  0  0  0  0
   -1.2826   -5.2233    8.2649 S   0  0  0  0  0  0  0  0  0  0  0  0
   -1.8316   -4.6842    9.4596 O   0  0  0  0  0  0  0  0  0  0  0  0
   -1.8188   -6.3779    7.6334 O   0  0  0  0  0  0  0  0  0  0  0  0
    0.3088   -5.5535    8.5823 N   0  0  0  0  0  0  0  0  0  0  0  0
    1.0439   -6.5580    7.7981 C   0  0  0  0  0  0  0  0  0  0  0  0
    2.3562   -5.9317    7.3149 C   0  0  0  0  0  0  0  0  0  0  0  0
    3.0970   -5.4006    8.4661 N   0  3  0  0  0  0  0  0  0  0  0  0
    2.3407   -4.3048    9.0851 C   0  0  0  0  0  0  0  0  0  0  0  0
    1.0293   -4.8464    9.6524 C   0  0  0  0  0  0  0  0  0  0  0  0
    4.4028   -4.8994    8.0169 C   0  0  0  0  0  0  0  0  0  0  0  0
   -1.3758   -5.2593   -1.6596 C   0  0  0  0  0  0  0  0  0  0  0  0
    1.0039    1.9031    0.0027 H   0  0  0  0  0  0  0  0  0  0  0  0
   -0.5459    1.8868   -0.8726 H   0  0  0  0  0  0  0  0  0  0  0  0
   -0.5289    1.8773    0.9072 H   0  0  0  0  0  0  0  0  0  0  0  0
    0.5123   -0.3556   -0.8948 H   0  0  0  0  0  0  0  0  0  0  0  0
    0.5293   -0.3651    0.8851 H   0  0  0  0  0  0  0  0  0  0  0  0
   -1.9435   -0.1821    0.9097 H   0  0  0  0  0  0  0  0  0  0  0  0
   -1.9605   -0.1726   -0.8702 H   0  0  0  0  0  0  0  0  0  0  0  0
   -1.3098   -5.2740    5.4062 H   0  0  0  0  0  0  0  0  0  0  0  0
   -1.3324   -2.3756    8.5327 H   0  0  0  0  0  0  0  0  0  0  0  0
   -1.3821   -0.5605    6.8761 H   0  0  0  0  0  0  0  0  0  0  0  0
   -2.2911    0.6033    5.3972 H   0  0  0  0  0  0  0  0  0  0  0  0
   -0.5114    0.6279    5.3815 H   0  0  0  0  0  0  0  0  0  0  0  0
   -1.4391    2.4610    3.9931 H   0  0  0  0  0  0  0  0  0  0  0  0
   -0.5417    1.2936    2.9931 H   0  0  0  0  0  0  0  0  0  0  0  0
   -2.3214    1.2691    3.0088 H   0  0  0  0  0  0  0  0  0  0  0  0
    1.2599   -7.4244    8.4233 H   0  0  0  0  0  0  0  0  0  0  0  0
    0.4453   -6.8622    6.9395 H   0  0  0  0  0  0  0  0  0  0  0  0
    2.9579   -6.6900    6.8139 H   0  0  0  0  0  0  0  0  0  0  0  0
    2.1378   -5.1222    6.6184 H   0  0  0  0  0  0  0  0  0  0  0  0
    2.9311   -3.8642    9.8885 H   0  0  0  0  0  0  0  0  0  0  0  0
    2.1228   -3.5445    8.3351 H   0  0  0  0  0  0  0  0  0  0  0  0
    0.4209   -4.0196   10.0191 H   0  0  0  0  0  0  0  0  0  0  0  0
    1.2438   -5.5370   10.4679 H   0  0  0  0  0  0  0  0  0  0  0  0
    4.2550   -4.1077    7.2824 H   0  0  0  0  0  0  0  0  0  0  0  0
    4.9538   -4.5049    8.8706 H   0  0  0  0  0  0  0  0  0  0  0  0
    4.9684   -5.7139    7.5643 H   0  0  0  0  0  0  0  0  0  0  0  0
   -0.3454   -5.5297   -1.8903 H   0  0  0  0  0  0  0  0  0  0  0  0
   -1.8762   -6.1045   -1.1871 H   0  0  0  0  0  0  0  0  0  0  0  0
   -1.8973   -4.9966   -2.5800 H   0  0  0  0  0  0  0  0  0  0  0  0
    3.2364   -6.1358    9.1430 H   0  0  0  0  0  0  0  0  0  0  0  0
  1  2  1  0  0  0  0
  1 35  1  0  0  0  0
  1 36  1  0  0  0  0
  1 37  1  0  0  0  0
  2  3  1  0  0  0  0
  2 38  1  0  0  0  0
  2 39  1  0  0  0  0
  3  4  1  0  0  0  0
  3 40  1  0  0  0  0
  3 41  1  0  0  0  0
  4  8  1  0  0  0  0
  4  5  2  0  0  0  0
  5  6  1  0  0  0  0
  6  7  2  0  0  0  0
  6 34  1  0  0  0  0
  7 13  1  0  0  0  0
  7  8  1  0  0  0  0
  8  9  1  0  0  0  0
  9 10  2  0  0  0  0
 10 11  1  0  0  0  0
 10 15  1  0  0  0  0
 11 12  1  0  0  0  0
 11 13  1  0  0  0  0
 13 14  2  0  0  0  0
 15 20  2  0  0  0  0
 15 16  1  0  0  0  0
 16 17  2  0  0  0  0
 16 42  1  0  0  0  0
 17 18  1  0  0  0  0
 17 24  1  0  0  0  0
 18 19  2  0  0  0  0
 18 43  1  0  0  0  0
 19 20  1  0  0  0  0
 19 44  1  0  0  0  0
 20 21  1  0  0  0  0
 21 22  1  0  0  0  0
 22 23  1  0  0  0  0
 22 45  1  0  0  0  0
 22 46  1  0  0  0  0
 23 47  1  0  0  0  0
 23 48  1  0  0  0  0
 23 49  1  0  0  0  0
 24 25  2  0  0  0  0
 24 26  2  0  0  0  0
 24 27  1  0  0  0  0
 27 32  1  0  0  0  0
 27 28  1  0  0  0  0
 28 29  1  0  0  0  0
 28 50  1  0  0  0  0
 28 51  1  0  0  0  0
 29 30  1  0  0  0  0
 29 52  1  0  0  0  0
 29 53  1  0  0  0  0
 30 31  1  0  0  0  0
 30 33  1  0  0  0  0
 30 64  1  0  0  0  0
 31 32  1  0  0  0  0
 31 54  1  0  0  0  0
 31 55  1  0  0  0  0
 32 56  1  0  0  0  0
 32 57  1  0  0  0  0
 33 58  1  0  0  0  0
 33 59  1  0  0  0  0
 33 60  1  0  0  0  0
 34 61  1  0  0  0  0
 34 62  1  0  0  0  0
 34 63  1  0  0  0  0
M  CHG  1  30   1
M  END
$$$$
CHEMBL1339
  -OEChem-07121202283D

 66 69  0     0  0  0  0  0  0999 V2000
   -0.0187    1.5258    0.0104 C   0  0  0  0  0  0  0  0  0  0  0  0
    0.0021   -0.0041    0.0020 C   0  0  0  0  0  0  0  0  0  0  0  0
    0.7182   -0.4975   -1.2568 C   0  0  0  0  0  0  0  0  0  0  0  0
    0.7386   -2.0043   -1.2651 C   0  0  0  0  0  0  0  0  0  0  0  0
    1.6787   -2.7529   -0.7375 N   0  0  0  0  0  0  0  0  0  0  0  0
    1.3866   -4.0413   -0.9211 C   0  0  0  0  0  0  0  0  0  0  0  0
    0.1960   -4.0985   -1.6021 C   0  0  0  0  0  0  0  0  0  0  0  0
   -0.2036   -2.7889   -1.8075 N   0  0  0  0  0  0  0  0  0  0  0  0
   -1.4027   -2.5429   -2.4823 N   0  0  0  0  0  0  0  0  0  0  0  0
   -2.1451   -3.5211   -2.9147 C   0  0  0  0  0  0  0  0  0  0  0  0
   -1.8014   -4.8460   -2.7370 N   0  0  0  0  0  0  0  0  0  0  0  0
   -0.6544   -5.1776   -2.1025 C   0  0  0  0  0  0  0  0  0  0  0  0
   -0.3442   -6.3438   -1.9407 O   0  0  0  0  0  0  0  0  0  0  0  0
   -3.4025   -3.2011   -3.6216 C   0  0  0  0  0  0  0  0  0  0  0  0
   -4.2233   -4.2270   -4.0923 C   0  0  0  0  0  0  0  0  0  0  0  0
   -5.3956   -3.9221   -4.7514 C   0  0  0  0  0  0  0  0  0  0  0  0
   -5.7625   -2.6016   -4.9484 C   0  0  0  0  0  0  0  0  0  0  0  0
   -4.9584   -1.5773   -4.4871 C   0  0  0  0  0  0  0  0  0  0  0  0
   -3.7798   -1.8669   -3.8177 C   0  0  0  0  0  0  0  0  0  0  0  0
   -2.9915   -0.8612   -3.3589 O   0  0  0  0  0  0  0  0  0  0  0  0
   -3.4407    0.4746   -3.5956 C   0  0  0  0  0  0  0  0  0  0  0  0
   -2.4300    1.4636   -3.0113 C   0  0  0  0  0  0  0  0  0  0  0  0
   -6.4307   -5.2183   -5.3457 S   0  0  0  0  0  0  0  0  0  0  0  0
   -7.1994   -4.6697   -6.4075 O   0  0  0  0  0  0  0  0  0  0  0  0
   -5.5978   -6.3568   -5.5173 O   0  0  0  0  0  0  0  0  0  0  0  0
   -7.4957   -5.5895   -4.1331 N   0  0  0  0  0  0  0  0  0  0  0  0
   -7.1670   -6.6094   -3.1256 C   0  0  0  0  0  0  0  0  0  0  0  0
   -7.3951   -6.0101   -1.7339 C   0  0  0  0  0  0  0  0  0  0  0  0
   -8.7605   -5.4743   -1.6528 N   0  0  0  0  0  0  0  0  0  0  0  0
   -8.9594   -4.3757   -2.6075 C   0  0  0  0  0  0  0  0  0  0  0  0
   -8.7928   -4.9036   -4.0315 C   0  0  0  0  0  0  0  0  0  0  0  0
   -9.0775   -5.0460   -0.2838 C   0  0  0  0  0  0  0  0  0  0  0  0
  -10.5711   -4.7305   -0.1811 C   0  0  0  0  0  0  0  0  0  0  0  0
    2.2115   -5.2172   -0.4653 C   0  0  0  0  0  0  0  0  0  0  0  0
    1.0039    1.9031    0.0027 H   0  0  0  0  0  0  0  0  0  0  0  0
   -0.5459    1.8868   -0.8726 H   0  0  0  0  0  0  0  0  0  0  0  0
   -0.5289    1.8773    0.9072 H   0  0  0  0  0  0  0  0  0  0  0  0
    0.5293   -0.3651    0.8851 H   0  0  0  0  0  0  0  0  0  0  0  0
   -1.0205   -0.3814    0.0098 H   0  0  0  0  0  0  0  0  0  0  0  0
    0.1910   -0.1364   -2.1398 H   0  0  0  0  0  0  0  0  0  0  0  0
    1.7408   -0.1202   -1.2645 H   0  0  0  0  0  0  0  0  0  0  0  0
   -3.9405   -5.2583   -3.9410 H   0  0  0  0  0  0  0  0  0  0  0  0
   -6.6820   -2.3711   -5.4658 H   0  0  0  0  0  0  0  0  0  0  0  0
   -5.2508   -0.5496   -4.6443 H   0  0  0  0  0  0  0  0  0  0  0  0
   -3.5339    0.6418   -4.6687 H   0  0  0  0  0  0  0  0  0  0  0  0
   -4.4100    0.6217   -3.1194 H   0  0  0  0  0  0  0  0  0  0  0  0
   -2.7726    2.4825   -3.1919 H   0  0  0  0  0  0  0  0  0  0  0  0
   -2.3368    1.2964   -1.9383 H   0  0  0  0  0  0  0  0  0  0  0  0
   -1.4607    1.3165   -3.4876 H   0  0  0  0  0  0  0  0  0  0  0  0
   -7.8113   -7.4781   -3.2603 H   0  0  0  0  0  0  0  0  0  0  0  0
   -6.1229   -6.9045   -3.2305 H   0  0  0  0  0  0  0  0  0  0  0  0
   -7.2628   -6.7844   -0.9782 H   0  0  0  0  0  0  0  0  0  0  0  0
   -6.6785   -5.2070   -1.5617 H   0  0  0  0  0  0  0  0  0  0  0  0
   -9.9616   -3.9647   -2.4854 H   0  0  0  0  0  0  0  0  0  0  0  0
   -8.2210   -3.5954   -2.4231 H   0  0  0  0  0  0  0  0  0  0  0  0
   -8.8232   -4.0716   -4.7350 H   0  0  0  0  0  0  0  0  0  0  0  0
   -9.5965   -5.6053   -4.2549 H   0  0  0  0  0  0  0  0  0  0  0  0
   -8.8260   -5.8445    0.4142 H   0  0  0  0  0  0  0  0  0  0  0  0
   -8.5002   -4.1544   -0.0392 H   0  0  0  0  0  0  0  0  0  0  0  0
  -10.8226   -3.9319   -0.8791 H   0  0  0  0  0  0  0  0  0  0  0  0
  -11.1485   -5.6221   -0.4257 H   0  0  0  0  0  0  0  0  0  0  0  0
  -10.8063   -4.4127    0.8346 H   0  0  0  0  0  0  0  0  0  0  0  0
    1.9006   -5.5126    0.5368 H   0  0  0  0  0  0  0  0  0  0  0  0
    2.0655   -6.0513   -1.1517 H   0  0  0  0  0  0  0  0  0  0  0  0
    3.2651   -4.9383   -0.4514 H   0  0  0  0  0  0  0  0  0  0  0  0
   -2.3840   -5.5441   -3.0747 H   0  0  0  0  0  0  0  0  0  0  0  0
  1  2  1  0  0  0  0
  1 35  1  0  0  0  0
  1 36  1  0  0  0  0
  1 37  1  0  0  0  0
  2  3  1  0  0  0  0
  2 38  1  0  0  0  0
  2 39  1  0  0  0  0
  3  4  1  0  0  0  0
  3 40  1  0  0  0  0
  3 41  1  0  0  0  0
  4  8  1  0  0  0  0
  4  5  2  0  0  0  0
  5  6  1  0  0  0  0
  6  7  2  0  0  0  0
  6 34  1  0  0  0  0
  7 12  1  0  0  0  0
  7  8  1  0  0  0  0
  8  9  1  0  0  0  0
  9 10  2  0  0  0  0
 10 11  1  0  0  0  0
 10 14  1  0  0  0  0
 11 12  1  0  0  0  0
 11 66  1  0  0  0  0
 12 13  2  0  0  0  0
 14 19  2  0  0  0  0
 14 15  1  0  0  0  0
 15 16  2  0  0  0  0
 15 42  1  0  0  0  0
 16 17  1  0  0  0  0
 16 23  1  0  0  0  0
 17 18  2  0  0  0  0
 17 43  1  0  0  0  0
 18 19  1  0  0  0  0
 18 44  1  0  0  0  0
 19 20  1  0  0  0  0
 20 21  1  0  0  0  0
 21 22  1  0  0  0  0
 21 45  1  0  0  0  0
 21 46  1  0  0  0  0
 22 47  1  0  0  0  0
 22 48  1  0  0  0  0
 22 49  1  0  0  0  0
 23 24  2  0  0  0  0
 23 25  2  0  0  0  0
 23 26  1  0  0  0  0
 26 31  1  0  0  0  0
 26 27  1  0  0  0  0
 27 28  1  0  0  0  0
 27 50  1  0  0  0  0
 27 51  1  0  0  0  0
 28 29  1  0  0  0  0
 28 52  1  0  0  0  0
 28 53  1  0  0  0  0
 29 30  1  0  0  0  0
 29 32  1  0  0  0  0
 30 31  1  0  0  0  0
 30 54  1  0  0  0  0
 30 55  1  0  0  0  0
 31 56  1  0  0  0  0
 31 57  1  0  0  0  0
 32 33  1  0  0  0  0
 32 58  1  0  0  0  0
 32 59  1  0  0  0  0
 33 60  1  0  0  0  0
 33 61  1  0  0  0  0
 33 62  1  0  0  0  0
 34 63  1  0  0  0  0
 34 64  1  0  0  0  0
 34 65  1  0  0  0  0
M  END
$$$$
CHEMBL1339
  -OEChem-07121202283D

 67 70  0     0  0  0  0  0  0999 V2000
   -0.0187    1.5258    0.0104 C   0  0  0  0  0  0  0  0  0  0  0  0
    0.0021   -0.0041    0.0020 C   0  0  0  0  0  0  0  0  0  0  0  0
   -1.4333   -0.5336    0.0129 C   0  0  0  0  0  0  0  0  0  0  0  0
   -1.4129   -2.0405    0.0046 C   0  0  0  0  0  0  0  0  0  0  0  0
   -1.4071   -2.7929   -1.0707 N   0  0  0  0  0  0  0  0  0  0  0  0
   -1.3877   -4.0800   -0.7214 C   0  0  0  0  0  0  0  0  0  0  0  0
   -1.3810   -4.1322    0.6504 C   0  0  0  0  0  0  0  0  0  0  0  0
   -1.3919   -2.8210    1.0945 N   0  0  0  0  0  0  0  0  0  0  0  0
   -1.3832   -2.5699    2.4695 N   0  0  0  0  0  0  0  0  0  0  0  0
   -1.3620   -3.5449    3.3321 C   0  0  0  0  0  0  0  0  0  0  0  0
   -1.3466   -4.8711    2.9502 N   0  0  0  0  0  0  0  0  0  0  0  0
   -1.3621   -5.2077    1.6407 C   0  0  0  0  0  0  0  0  0  0  0  0
   -1.3478   -6.3752    1.2954 O   0  0  0  0  0  0  0  0  0  0  0  0
   -1.3537   -3.2195    4.7733 C   0  0  0  0  0  0  0  0  0  0  0  0
   -1.3254   -4.2417    5.7231 C   0  0  0  0  0  0  0  0  0  0  0  0
   -1.3178   -3.9318    7.0668 C   0  0  0  0  0  0  0  0  0  0  0  0
   -1.3382   -2.6100    7.4784 C   0  0  0  0  0  0  0  0  0  0  0  0
   -1.3663   -1.5892    6.5478 C   0  0  0  0  0  0  0  0  0  0  0  0
   -1.3684   -1.8838    5.1935 C   0  0  0  0  0  0  0  0  0  0  0  0
   -1.3904   -0.8814    4.2779 O   0  0  0  0  0  0  0  0  0  0  0  0
   -1.4044    0.4562    4.7806 C   0  0  0  0  0  0  0  0  0  0  0  0
   -1.4284    1.4408    3.6097 C   0  0  0  0  0  0  0  0  0  0  0  0
   -1.2826   -5.2233    8.2649 S   0  0  0  0  0  0  0  0  0  0  0  0
   -1.8316   -4.6842    9.4596 O   0  0  0  0  0  0  0  0  0  0  0  0
   -1.8188   -6.3779    7.6334 O   0  0  0  0  0  0  0  0  0  0  0  0
    0.3088   -5.5535    8.5823 N   0  0  0  0  0  0  0  0  0  0  0  0
    1.0439   -6.5580    7.7981 C   0  0  0  0  0  0  0  0  0  0  0  0
    2.3562   -5.9317    7.3149 C   0  0  0  0  0  0  0  0  0  0  0  0
    3.0970   -5.4006    8.4661 N   0  3  0  0  0  0  0  0  0  0  0  0
    2.3407   -4.3048    9.0851 C   0  0  0  0  0  0  0  0  0  0  0  0
    1.0293   -4.8464    9.6524 C   0  0  0  0  0  0  0  0  0  0  0  0
    4.4028   -4.8994    8.0169 C   0  0  0  0  0  0  0  0  0  0  0  0
    5.2254   -4.4605    9.2299 C   0  0  0  0  0  0  0  0  0  0  0  0
   -1.3758   -5.2593   -1.6596 C   0  0  0  0  0  0  0  0  0  0  0  0
    1.0039    1.9031    0.0027 H   0  0  0  0  0  0  0  0  0  0  0  0
   -0.5459    1.8868   -0.8726 H   0  0  0  0  0  0  0  0  0  0  0  0
   -0.5289    1.8773    0.9072 H   0  0  0  0  0  0  0  0  0  0  0  0
    0.5123   -0.3556   -0.8948 H   0  0  0  0  0  0  0  0  0  0  0  0
    0.5293   -0.3651    0.8851 H   0  0  0  0  0  0  0  0  0  0  0  0
   -1.9435   -0.1821    0.9097 H   0  0  0  0  0  0  0  0  0  0  0  0
   -1.9605   -0.1726   -0.8702 H   0  0  0  0  0  0  0  0  0  0  0  0
   -1.3098   -5.2740    5.4062 H   0  0  0  0  0  0  0  0  0  0  0  0
   -1.3324   -2.3756    8.5327 H   0  0  0  0  0  0  0  0  0  0  0  0
   -1.3821   -0.5605    6.8761 H   0  0  0  0  0  0  0  0  0  0  0  0
   -2.2911    0.6033    5.3972 H   0  0  0  0  0  0  0  0  0  0  0  0
   -0.5114    0.6279    5.3815 H   0  0  0  0  0  0  0  0  0  0  0  0
   -2.3214    1.2691    3.0088 H   0  0  0  0  0  0  0  0  0  0  0  0
   -1.4391    2.4610    3.9931 H   0  0  0  0  0  0  0  0  0  0  0  0
   -0.5417    1.2936    2.9931 H   0  0  0  0  0  0  0  0  0  0  0  0
    1.2599   -7.4244    8.4233 H   0  0  0  0  0  0  0  0  0  0  0  0
    0.4453   -6.8622    6.9395 H   0  0  0  0  0  0  0  0  0  0  0  0
    2.9579   -6.6900    6.8139 H   0  0  0  0  0  0  0  0  0  0  0  0
    2.1378   -5.1222    6.6184 H   0  0  0  0  0  0  0  0  0  0  0  0
    2.9311   -3.8642    9.8885 H   0  0  0  0  0  0  0  0  0  0  0  0
    2.1228   -3.5445    8.3351 H   0  0  0  0  0  0  0  0  0  0  0  0
    0.4209   -4.0196   10.0191 H   0  0  0  0  0  0  0  0  0  0  0  0
    1.2438   -5.5370   10.4679 H   0  0  0  0  0  0  0  0  0  0  0  0
    4.9323   -5.6903    7.4857 H   0  0  0  0  0  0  0  0  0  0  0  0
    4.2560   -4.0494    7.3505 H   0  0  0  0  0  0  0  0  0  0  0  0
    4.6958   -3.6696    9.7611 H   0  0  0  0  0  0  0  0  0  0  0  0
    5.3721   -5.3105    9.8963 H   0  0  0  0  0  0  0  0  0  0  0  0
    6.1943   -4.0886    8.8966 H   0  0  0  0  0  0  0  0  0  0  0  0
   -0.3454   -5.5297   -1.8903 H   0  0  0  0  0  0  0  0  0  0  0  0
   -1.8762   -6.1045   -1.1871 H   0  0  0  0  0  0  0  0  0  0  0  0
   -1.8973   -4.9966   -2.5800 H   0  0  0  0  0  0  0  0  0  0  0  0
   -1.3304   -5.5667    3.6261 H   0  0  0  0  0  0  0  0  0  0  0  0
    3.2364   -6.1358    9.1430 H   0  0  0  0  0  0  0  0  0  0  0  0
  1  2  1  0  0  0  0
  1 35  1  0  0  0  0
  1 36  1  0  0  0  0
  1 37  1  0  0  0  0
  2  3  1  0  0  0  0
  2 38  1  0  0  0  0
  2 39  1  0  0  0  0
  3  4  1  0  0  0  0
  3 40  1  0  0  0  0
  3 41  1  0  0  0  0
  4  8  1  0  0  0  0
  4  5  2  0  0  0  0
  5  6  1  0  0  0  0
  6  7  2  0  0  0  0
  6 34  1  0  0  0  0
  7 12  1  0  0  0  0
  7  8  1  0  0  0  0
  8  9  1  0  0  0  0
  9 10  2  0  0  0  0
 10 11  1  0  0  0  0
 10 14  1  0  0  0  0
 11 12  1  0  0  0  0
 11 66  1  0  0  0  0
 12 13  2  0  0  0  0
 14 19  2  0  0  0  0
 14 15  1  0  0  0  0
 15 16  2  0  0  0  0
 15 42  1  0  0  0  0
 16 17  1  0  0  0  0
 16 23  1  0  0  0  0
 17 18  2  0  0  0  0
 17 43  1  0  0  0  0
 18 19  1  0  0  0  0
 18 44  1  0  0  0  0
 19 20  1  0  0  0  0
 20 21  1  0  0  0  0
 21 22  1  0  0  0  0
 21 45  1  0  0  0  0
 21 46  1  0  0  0  0
 22 47  1  0  0  0  0
 22 48  1  0  0  0  0
 22 49  1  0  0  0  0
 23 24  2  0  0  0  0
 23 25  2  0  0  0  0
 23 26  1  0  0  0  0
 26 31  1  0  0  0  0
 26 27  1  0  0  0  0
 27 28  1  0  0  0  0
 27 50  1  0  0  0  0
 27 51  1  0  0  0  0
 28 29  1  0  0  0  0
 28 52  1  0  0  0  0
 28 53  1  0  0  0  0
 29 30  1  0  0  0  0
 29 32  1  0  0  0  0
 29 67  1  0  0  0  0
 30 31  1  0  0  0  0
 30 54  1  0  0  0  0
 30 55  1  0  0  0  0
 31 56  1  0  0  0  0
 31 57  1  0  0  0  0
 32 33  1  0  0  0  0
 32 58  1  0  0  0  0
 32 59  1  0  0  0  0
 33 60  1  0  0  0  0
 33 61  1  0  0  0  0
 33 62  1  0  0  0  0
 34 63  1  0  0  0  0
 34 64  1  0  0  0  0
 34 65  1  0  0  0  0
M  CHG  1  29   1
M  END
$$$$
CHEMBL1339
  -OEChem-07121202283D

 65 68  0     0  0  0  0  0  0999 V2000
   -0.0187    1.5258    0.0104 C   0  0  0  0  0  0  0  0  0  0  0  0
    0.0021   -0.0041    0.0020 C   0  0  0  0  0  0  0  0  0  0  0  0
   -1.4333   -0.5336    0.0129 C   0  0  0  0  0  0  0  0  0  0  0  0
   -1.4129   -2.0405    0.0046 C   0  0  0  0  0  0  0  0  0  0  0  0
   -1.4071   -2.7931   -1.0712 N   0  0  0  0  0  0  0  0  0  0  0  0
   -1.3882   -4.0792   -0.7236 C   0  0  0  0  0  0  0  0  0  0  0  0
   -1.3817   -4.1334    0.6527 C   0  0  0  0  0  0  0  0  0  0  0  0
   -1.3919   -2.8203    1.0938 N   0  0  0  0  0  0  0  0  0  0  0  0
   -1.3825   -2.5794    2.4721 N   0  0  0  0  0  0  0  0  0  0  0  0
   -1.3611   -3.5896    3.3115 C   0  0  0  0  0  0  0  0  0  0  0  0
   -1.3477   -4.8635    2.8932 N   0  0  0  0  0  0  0  0  0  0  0  0
   -1.3637   -5.1706    1.6102 C   0  0  0  0  0  0  0  0  0  0  0  0
   -1.3482   -6.4650    1.2164 O   0  5  0  0  0  0  0  0  0  0  0  0
   -1.3510   -3.3124    4.7674 C   0  0  0  0  0  0  0  0  0  0  0  0
   -1.3226   -4.3652    5.6804 C   0  0  0  0  0  0  0  0  0  0  0  0
   -1.3133   -4.1018    7.0345 C   0  0  0  0  0  0  0  0  0  0  0  0
   -1.3321   -2.7951    7.4910 C   0  0  0  0  0  0  0  0  0  0  0  0
   -1.3608   -1.7438    6.5951 C   0  0  0  0  0  0  0  0  0  0  0  0
   -1.3641   -1.9932    5.2316 C   0  0  0  0  0  0  0  0  0  0  0  0
   -1.3862   -0.9606    4.3499 O   0  0  0  0  0  0  0  0  0  0  0  0
   -1.3985    0.3595    4.8970 C   0  0  0  0  0  0  0  0  0  0  0  0
   -1.4229    1.3826    3.7597 C   0  0  0  0  0  0  0  0  0  0  0  0
   -1.2780   -5.4337    8.1875 S   0  0  0  0  0  0  0  0  0  0  0  0
   -1.8252   -4.9355    9.4005 O   0  0  0  0  0  0  0  0  0  0  0  0
   -1.8158   -6.5654    7.5173 O   0  0  0  0  0  0  0  0  0  0  0  0
    0.3135   -5.7760    8.4916 N   0  0  0  0  0  0  0  0  0  0  0  0
    1.0454   -6.7536    7.6720 C   0  0  0  0  0  0  0  0  0  0  0  0
    2.3494   -6.1074    7.1922 C   0  0  0  0  0  0  0  0  0  0  0  0
    3.0902   -5.5890    8.3500 N   0  0  0  0  0  0  0  0  0  0  0  0
    2.3371   -4.5289    9.0333 C   0  0  0  0  0  0  0  0  0  0  0  0
    1.0342   -5.1059    9.5847 C   0  0  0  0  0  0  0  0  0  0  0  0
    4.4231   -5.1157    7.9532 C   0  0  0  0  0  0  0  0  0  0  0  0
    5.2521   -4.8186    9.2044 C   0  0  0  0  0  0  0  0  0  0  0  0
   -1.3761   -5.2575   -1.6630 C   0  0  0  0  0  0  0  0  0  0  0  0
    1.0039    1.9031    0.0027 H   0  0  0  0  0  0  0  0  0  0  0  0
   -0.5459    1.8868   -0.8726 H   0  0  0  0  0  0  0  0  0  0  0  0
   -0.5289    1.8773    0.9072 H   0  0  0  0  0  0  0  0  0  0  0  0
    0.5123   -0.3556   -0.8948 H   0  0  0  0  0  0  0  0  0  0  0  0
    0.5293   -0.3651    0.8851 H   0  0  0  0  0  0  0  0  0  0  0  0
   -1.9435   -0.1821    0.9097 H   0  0  0  0  0  0  0  0  0  0  0  0
   -1.9605   -0.1726   -0.8702 H   0  0  0  0  0  0  0  0  0  0  0  0
   -1.3082   -5.3860    5.3281 H   0  0  0  0  0  0  0  0  0  0  0  0
   -1.3247   -2.5965    8.5525 H   0  0  0  0  0  0  0  0  0  0  0  0
   -1.3757   -0.7265    6.9575 H   0  0  0  0  0  0  0  0  0  0  0  0
   -2.2844    0.4866    5.5191 H   0  0  0  0  0  0  0  0  0  0  0  0
   -0.5047    0.5103    5.5023 H   0  0  0  0  0  0  0  0  0  0  0  0
   -1.4323    2.3896    4.1770 H   0  0  0  0  0  0  0  0  0  0  0  0
   -0.5370    1.2555    3.1375 H   0  0  0  0  0  0  0  0  0  0  0  0
   -2.3167    1.2318    3.1543 H   0  0  0  0  0  0  0  0  0  0  0  0
    1.2725   -7.6360    8.2702 H   0  0  0  0  0  0  0  0  0  0  0  0
    0.4391   -7.0371    6.8117 H   0  0  0  0  0  0  0  0  0  0  0  0
    2.9558   -6.8517    6.6760 H   0  0  0  0  0  0  0  0  0  0  0  0
    2.1202   -5.2882    6.5106 H   0  0  0  0  0  0  0  0  0  0  0  0
    2.9344   -4.1285    9.8524 H   0  0  0  0  0  0  0  0  0  0  0  0
    2.1080   -3.7317    8.3261 H   0  0  0  0  0  0  0  0  0  0  0  0
    0.4205   -4.3006    9.9884 H   0  0  0  0  0  0  0  0  0  0  0  0
    1.2602   -5.8269   10.3703 H   0  0  0  0  0  0  0  0  0  0  0  0
    4.9205   -5.8846    7.3620 H   0  0  0  0  0  0  0  0  0  0  0  0
    4.3241   -4.2075    7.3587 H   0  0  0  0  0  0  0  0  0  0  0  0
    6.2411   -4.4674    8.9100 H   0  0  0  0  0  0  0  0  0  0  0  0
    4.7547   -4.0497    9.7956 H   0  0  0  0  0  0  0  0  0  0  0  0
    5.3511   -5.7268    9.7988 H   0  0  0  0  0  0  0  0  0  0  0  0
   -0.3456   -5.5279   -1.8935 H   0  0  0  0  0  0  0  0  0  0  0  0
   -1.8769   -6.1032   -1.1917 H   0  0  0  0  0  0  0  0  0  0  0  0
   -1.8970   -4.9937   -2.5834 H   0  0  0  0  0  0  0  0  0  0  0  0
  1  2  1  0  0  0  0
  1 35  1  0  0  0  0
  1 36  1  0  0  0  0
  1 37  1  0  0  0  0
  2  3  1  0  0  0  0
  2 38  1  0  0  0  0
  2 39  1  0  0  0  0
  3  4  1  0  0  0  0
  3 40  1  0  0  0  0
  3 41  1  0  0  0  0
  4  8  1  0  0  0  0
  4  5  2  0  0  0  0
  5  6  1  0  0  0  0
  6  7  2  0  0  0  0
  6 34  1  0  0  0  0
  7 12  1  0  0  0  0
  7  8  1  0  0  0  0
  8  9  1  0  0  0  0
  9 10  2  0  0  0  0
 10 11  1  0  0  0  0
 10 14  1  0  0  0  0
 11 12  2  0  0  0  0
 12 13  1  0  0  0  0
 14 19  2  0  0  0  0
 14 15  1  0  0  0  0
 15 16  2  0  0  0  0
 15 42  1  0  0  0  0
 16 17  1  0  0  0  0
 16 23  1  0  0  0  0
 17 18  2  0  0  0  0
 17 43  1  0  0  0  0
 18 19  1  0  0  0  0
 18 44  1  0  0  0  0
 19 20  1  0  0  0  0
 20 21  1  0  0  0  0
 21 22  1  0  0  0  0
 21 45  1  0  0  0  0
 21 46  1  0  0  0  0
 22 47  1  0  0  0  0
 22 48  1  0  0  0  0
 22 49  1  0  0  0  0
 23 24  2  0  0  0  0
 23 25  2  0  0  0  0
 23 26  1  0  0  0  0
 26 31  1  0  0  0  0
 26 27  1  0  0  0  0
 27 28  1  0  0  0  0
 27 50  1  0  0  0  0
 27 51  1  0  0  0  0
 28 29  1  0  0  0  0
 28 52  1  0  0  0  0
 28 53  1  0  0  0  0
 29 30  1  0  0  0  0
 29 32  1  0  0  0  0
 30 31  1  0  0  0  0
 30 54  1  0  0  0  0
 30 55  1  0  0  0  0
 31 56  1  0  0  0  0
 31 57  1  0  0  0  0
 32 33  1  0  0  0  0
 32 58  1  0  0  0  0
 32 59  1  0  0  0  0
 33 60  1  0  0  0  0
 33 61  1  0  0  0  0
 33 62  1  0  0  0  0
 34 63  1  0  0  0  0
 34 64  1  0  0  0  0
 34 65  1  0  0  0  0
M  CHG  1  13  -1
M  END
$$$$
CHEMBL355574
  -OEChem-07121202283D

 54 60  0     1  0  0  0  0  0999 V2000
   -0.0165    1.3628    0.0095 C   0  0  0  0  0  0  0  0  0  0  0  0
    1.1698    2.0838    0.0021 C   0  0  0  0  0  0  0  0  0  0  0  0
    2.3862    1.4376   -0.0135 C   0  0  0  0  0  0  0  0  0  0  0  0
    2.4284    0.0458   -0.0214 C   0  0  0  0  0  0  0  0  0  0  0  0
    1.2231   -0.6777   -0.0133 C   0  0  0  0  0  0  0  0  0  0  0  0
    0.0021   -0.0041    0.0020 C   0  0  0  0  0  0  0  0  0  0  0  0
    1.2934   -2.1480   -0.0219 C   0  0  0  0  0  0  0  0  0  0  0  0
    2.5744   -2.7535   -0.0380 C   0  0  0  0  0  0  0  0  0  0  0  0
    3.6874   -1.9921   -0.0449 C   0  0  0  0  0  0  0  0  0  0  0  0
    3.6240   -0.6315   -0.0374 N   0  0  0  0  0  0  0  0  0  0  0  0
    4.9010   -2.8944   -0.0614 C   0  0  2  0  0  0  0  0  0  0  0  0
    4.4244   -4.2808   -0.0638 N   0  0  0  0  0  0  0  0  0  0  0  0
    2.9595   -4.2121   -0.0492 C   0  0  0  0  0  0  0  0  0  0  0  0
    5.2014   -5.4254   -0.0782 C   0  0  0  0  0  0  0  0  0  0  0  0
    6.5215   -5.3077   -0.0860 N   0  0  0  0  0  0  0  0  0  0  0  0
    7.2974   -6.3771   -0.0997 C   0  0  0  0  0  0  0  0  0  0  0  0
    6.7071   -7.6434   -0.1059 C   0  0  0  0  0  0  0  0  0  0  0  0
    5.3123   -7.7246   -0.0973 C   0  0  0  0  0  0  0  0  0  0  0  0
    4.6048   -6.6089   -0.0783 N   0  0  0  0  0  0  0  0  0  0  0  0
    7.5404   -8.8710   -0.1218 C   0  0  0  0  0  0  0  0  0  0  0  0
    6.9432  -10.1346   -0.1338 C   0  0  0  0  0  0  0  0  0  0  0  0
    7.7644  -11.2487   -0.1489 C   0  0  0  0  0  0  0  0  0  0  0  0
    9.1369  -11.0775   -0.1515 C   0  0  0  0  0  0  0  0  0  0  0  0
    9.6717   -9.8719   -0.1400 N   0  0  0  0  0  0  0  0  0  0  0  0
    8.9307   -8.7827   -0.1308 C   0  0  0  0  0  0  0  0  0  0  0  0
    5.7400   -2.6447    1.1653 C   0  0  0  0  0  0  0  0  0  0  0  0
    5.3847   -3.2176    2.3723 C   0  0  0  0  0  0  0  0  0  0  0  0
    6.1514   -2.9919    3.5002 C   0  0  0  0  0  0  0  0  0  0  0  0
    7.2785   -2.1899    3.4234 C   0  0  0  0  0  0  0  0  0  0  0  0
    7.6364   -1.6128    2.2075 C   0  0  0  0  0  0  0  0  0  0  0  0
    6.8665   -1.8480    1.0799 C   0  0  0  0  0  0  0  0  0  0  0  0
    8.7708   -0.8762    2.3914 O   0  0  0  0  0  0  0  0  0  0  0  0
    8.8731   -0.6764    3.8137 C   0  0  0  0  0  0  0  0  0  0  0  0
    8.1887   -1.8150    4.3690 O   0  0  0  0  0  0  0  0  0  0  0  0
    0.2786   -2.8253   -0.0151 O   0  0  0  0  0  0  0  0  0  0  0  0
   -0.9613    1.8858    0.0259 H   0  0  0  0  0  0  0  0  0  0  0  0
    1.1386    3.1633    0.0082 H   0  0  0  0  0  0  0  0  0  0  0  0
    3.3032    2.0080   -0.0199 H   0  0  0  0  0  0  0  0  0  0  0  0
   -0.9242   -0.5595    0.0083 H   0  0  0  0  0  0  0  0  0  0  0  0
    5.4905   -2.7047   -0.9584 H   0  0  0  0  0  0  0  0  0  0  0  0
    2.5749   -4.7034    0.8446 H   0  0  0  0  0  0  0  0  0  0  0  0
    2.5575   -4.6942   -0.9403 H   0  0  0  0  0  0  0  0  0  0  0  0
    8.3724   -6.2738   -0.1064 H   0  0  0  0  0  0  0  0  0  0  0  0
    4.8195   -8.6857   -0.1018 H   0  0  0  0  0  0  0  0  0  0  0  0
    5.8683  -10.2391   -0.1311 H   0  0  0  0  0  0  0  0  0  0  0  0
    7.3381  -12.2409   -0.1581 H   0  0  0  0  0  0  0  0  0  0  0  0
    9.7808  -11.9445   -0.1629 H   0  0  0  0  0  0  0  0  0  0  0  0
    9.4053   -7.8125   -0.1262 H   0  0  0  0  0  0  0  0  0  0  0  0
    4.5060   -3.8425    2.4343 H   0  0  0  0  0  0  0  0  0  0  0  0
    5.8715   -3.4407    4.4418 H   0  0  0  0  0  0  0  0  0  0  0  0
    7.1442   -1.4054    0.1348 H   0  0  0  0  0  0  0  0  0  0  0  0
    9.9177   -0.6681    4.1251 H   0  0  0  0  0  0  0  0  0  0  0  0
    8.3775    0.2490    4.1071 H   0  0  0  0  0  0  0  0  0  0  0  0
    4.4504   -0.1236   -0.0431 H   0  0  0  0  0  0  0  0  0  0  0  0
  1  6  2  0  0  0  0
  1  2  1  0  0  0  0
  1 36  1  0  0  0  0
  2  3  2  0  0  0  0
  2 37  1  0  0  0  0
  3  4  1  0  0  0  0
  3 38  1  0  0  0  0
  4 10  1  0  0  0  0
  4  5  2  0  0  0  0
  5  6  1  0  0  0  0
  5  7  1  0  0  0  0
  6 39  1  0  0  0  0
  7  8  1  0  0  0  0
  7 35  2  0  0  0  0
  8 13  1  0  0  0  0
  8  9  2  0  0  0  0
  9 10  1  0  0  0  0
  9 11  1  0  0  0  0
 10 54  1  0  0  0  0
 11 12  1  0  0  0  0
 11 26  1  0  0  0  0
 11 40  1  0  0  0  0
 12 13  1  0  0  0  0
 12 14  1  0  0  0  0
 13 41  1  0  0  0  0
 13 42  1  0  0  0  0
 14 19  2  0  0  0  0
 14 15  1  0  0  0  0
 15 16  2  0  0  0  0
 16 17  1  0  0  0  0
 16 43  1  0  0  0  0
 17 18  2  0  0  0  0
 17 20  1  0  0  0  0
 18 19  1  0  0  0  0
 18 44  1  0  0  0  0
 20 25  2  0  0  0  0
 20 21  1  0  0  0  0
 21 22  2  0  0  0  0
 21 45  1  0  0  0  0
 22 23  1  0  0  0  0
 22 46  1  0  0  0  0
 23 24  2  0  0  0  0
 23 47  1  0  0  0  0
 24 25  1  0  0  0  0
 25 48  1  0  0  0  0
 26 31  2  0  0  0  0
 26 27  1  0  0  0  0
 27 28  2  0  0  0  0
 27 49  1  0  0  0  0
 28 29  1  0  0  0  0
 28 50  1  0  0  0  0
 29 34  1  0  0  0  0
 29 30  2  0  0  0  0
 30 31  1  0  0  0  0
 30 32  1  0  0  0  0
 31 51  1  0  0  0  0
 32 33  1  0  0  0  0
 33 34  1  0  0  0  0
 33 52  1  0  0  0  0
 33 53  1  0  0  0  0
M  END
$$$$
CHEMBL355574
  -OEChem-07121202283D

 54 60  0     1  0  0  0  0  0999 V2000
   -0.0165    1.3628    0.0095 C   0  0  0  0  0  0  0  0  0  0  0  0
    1.1698    2.0838    0.0021 C   0  0  0  0  0  0  0  0  0  0  0  0
    2.3862    1.4376   -0.0135 C   0  0  0  0  0  0  0  0  0  0  0  0
    2.4284    0.0458   -0.0214 C   0  0  0  0  0  0  0  0  0  0  0  0
    1.2231   -0.6777   -0.0133 C   0  0  0  0  0  0  0  0  0  0  0  0
    0.0021   -0.0041    0.0020 C   0  0  0  0  0  0  0  0  0  0  0  0
    1.2934   -2.1480   -0.0219 C   0  0  0  0  0  0  0  0  0  0  0  0
    2.5744   -2.7535   -0.0380 C   0  0  0  0  0  0  0  0  0  0  0  0
    3.6874   -1.9921   -0.0449 C   0  0  0  0  0  0  0  0  0  0  0  0
    3.6240   -0.6315   -0.0374 N   0  0  0  0  0  0  0  0  0  0  0  0
    4.9010   -2.8944   -0.0614 C   0  0  1  0  0  0  0  0  0  0  0  0
    4.4244   -4.2808   -0.0638 N   0  0  0  0  0  0  0  0  0  0  0  0
    2.9595   -4.2121   -0.0492 C   0  0  0  0  0  0  0  0  0  0  0  0
    5.2014   -5.4254   -0.0782 C   0  0  0  0  0  0  0  0  0  0  0  0
    6.5215   -5.3077   -0.0860 N   0  0  0  0  0  0  0  0  0  0  0  0
    7.2974   -6.3771   -0.0997 C   0  0  0  0  0  0  0  0  0  0  0  0
    6.7071   -7.6434   -0.1059 C   0  0  0  0  0  0  0  0  0  0  0  0
    5.3123   -7.7246   -0.0973 C   0  0  0  0  0  0  0  0  0  0  0  0
    4.6048   -6.6089   -0.0783 N   0  0  0  0  0  0  0  0  0  0  0  0
    7.5404   -8.8710   -0.1218 C   0  0  0  0  0  0  0  0  0  0  0  0
    6.9432  -10.1346   -0.1338 C   0  0  0  0  0  0  0  0  0  0  0  0
    7.7644  -11.2487   -0.1489 C   0  0  0  0  0  0  0  0  0  0  0  0
    9.1369  -11.0775   -0.1515 C   0  0  0  0  0  0  0  0  0  0  0  0
    9.6717   -9.8719   -0.1400 N   0  0  0  0  0  0  0  0  0  0  0  0
    8.9307   -8.7827   -0.1308 C   0  0  0  0  0  0  0  0  0  0  0  0
    5.7160   -2.6321   -1.3016 C   0  0  0  0  0  0  0  0  0  0  0  0
    5.3306   -3.1832   -2.5095 C   0  0  0  0  0  0  0  0  0  0  0  0
    6.0746   -2.9451   -3.6500 C   0  0  0  0  0  0  0  0  0  0  0  0
    7.2095   -2.1531   -3.5847 C   0  0  0  0  0  0  0  0  0  0  0  0
    7.5977   -1.5979   -2.3679 C   0  0  0  0  0  0  0  0  0  0  0  0
    6.8440   -1.8362   -1.2301 C   0  0  0  0  0  0  0  0  0  0  0  0
    8.7339   -0.8674   -2.5644 O   0  0  0  0  0  0  0  0  0  0  0  0
    9.2645   -1.3137   -3.8263 C   0  0  0  0  0  0  0  0  0  0  0  0
    8.1025   -1.7704   -4.5435 O   0  0  0  0  0  0  0  0  0  0  0  0
    0.2786   -2.8253   -0.0151 O   0  0  0  0  0  0  0  0  0  0  0  0
   -0.9613    1.8858    0.0259 H   0  0  0  0  0  0  0  0  0  0  0  0
    1.1386    3.1633    0.0082 H   0  0  0  0  0  0  0  0  0  0  0  0
    3.3032    2.0080   -0.0199 H   0  0  0  0  0  0  0  0  0  0  0  0
   -0.9242   -0.5595    0.0083 H   0  0  0  0  0  0  0  0  0  0  0  0
    5.5079   -2.7138    0.8259 H   0  0  0  0  0  0  0  0  0  0  0  0
    2.5749   -4.7034    0.8446 H   0  0  0  0  0  0  0  0  0  0  0  0
    2.5575   -4.6942   -0.9403 H   0  0  0  0  0  0  0  0  0  0  0  0
    8.3724   -6.2738   -0.1064 H   0  0  0  0  0  0  0  0  0  0  0  0
    4.8195   -8.6857   -0.1018 H   0  0  0  0  0  0  0  0  0  0  0  0
    5.8683  -10.2391   -0.1311 H   0  0  0  0  0  0  0  0  0  0  0  0
    7.3381  -12.2409   -0.1581 H   0  0  0  0  0  0  0  0  0  0  0  0
    9.7808  -11.9445   -0.1629 H   0  0  0  0  0  0  0  0  0  0  0  0
    9.4053   -7.8125   -0.1262 H   0  0  0  0  0  0  0  0  0  0  0  0
    4.4467   -3.8015   -2.5622 H   0  0  0  0  0  0  0  0  0  0  0  0
    5.7713   -3.3769   -4.5923 H   0  0  0  0  0  0  0  0  0  0  0  0
    7.1401   -1.4033   -0.2860 H   0  0  0  0  0  0  0  0  0  0  0  0
    9.7409   -0.4881   -4.3550 H   0  0  0  0  0  0  0  0  0  0  0  0
    9.9690   -2.1321   -3.6777 H   0  0  0  0  0  0  0  0  0  0  0  0
    4.4504   -0.1236   -0.0431 H   0  0  0  0  0  0  0  0  0  0  0  0
  1  6  2  0  0  0  0
  1  2  1  0  0  0  0
  1 36  1  0  0  0  0
  2  3  2  0  0  0  0
  2 37  1  0  0  0  0
  3  4  1  0  0  0  0
  3 38  1  0  0  0  0
  4 10  1  0  0  0  0
  4  5  2  0  0  0  0
  5  6  1  0  0  0  0
  5  7  1  0  0  0  0
  6 39  1  0  0  0  0
  7  8  1  0  0  0  0
  7 35  2  0  0  0  0
  8 13  1  0  0  0  0
  8  9  2  0  0  0  0
  9 10  1  0  0  0  0
  9 11  1  0  0  0  0
 10 54  1  0  0  0  0
 11 12  1  0  0  0  0
 11 26  1  0  0  0  0
 11 40  1  0  0  0  0
 12 13  1  0  0  0  0
 12 14  1  0  0  0  0
 13 41  1  0  0  0  0
 13 42  1  0  0  0  0
 14 19  2  0  0  0  0
 14 15  1  0  0  0  0
 15 16  2  0  0  0  0
 16 17  1  0  0  0  0
 16 43  1  0  0  0  0
 17 18  2  0  0  0  0
 17 20  1  0  0  0  0
 18 19  1  0  0  0  0
 18 44  1  0  0  0  0
 20 25  2  0  0  0  0
 20 21  1  0  0  0  0
 21 22  2  0  0  0  0
 21 45  1  0  0  0  0
 22 23  1  0  0  0  0
 22 46  1  0  0  0  0
 23 24  2  0  0  0  0
 23 47  1  0  0  0  0
 24 25  1  0  0  0  0
 25 48  1  0  0  0  0
 26 31  2  0  0  0  0
 26 27  1  0  0  0  0
 27 28  2  0  0  0  0
 27 49  1  0  0  0  0
 28 29  1  0  0  0  0
 28 50  1  0  0  0  0
 29 34  1  0  0  0  0
 29 30  2  0  0  0  0
 30 31  1  0  0  0  0
 30 32  1  0  0  0  0
 31 51  1  0  0  0  0
 32 33  1  0  0  0  0
 33 34  1  0  0  0  0
 33 52  1  0  0  0  0
 33 53  1  0  0  0  0
M  END
$$$$
CHEMBL425690
  -OEChem-07121202283D

 56 62  0     1  0  0  0  0  0999 V2000
   -0.0165    1.3628    0.0095 C   0  0  0  0  0  0  0  0  0  0  0  0
    1.1698    2.0838    0.0021 C   0  0  0  0  0  0  0  0  0  0  0  0
    2.3862    1.4376   -0.0135 C   0  0  0  0  0  0  0  0  0  0  0  0
    2.4284    0.0458   -0.0214 C   0  0  0  0  0  0  0  0  0  0  0  0
    1.2231   -0.6777   -0.0133 C   0  0  0  0  0  0  0  0  0  0  0  0
    0.0021   -0.0041    0.0020 C   0  0  0  0  0  0  0  0  0  0  0  0
    1.2934   -2.1480   -0.0219 C   0  0  0  0  0  0  0  0  0  0  0  0
    2.5744   -2.7535   -0.0380 C   0  0  0  0  0  0  0  0  0  0  0  0
    3.6874   -1.9921   -0.0449 C   0  0  0  0  0  0  0  0  0  0  0  0
    3.6240   -0.6315   -0.0374 N   0  0  0  0  0  0  0  0  0  0  0  0
    4.9010   -2.8944   -0.0614 C   0  0  2  0  0  0  0  0  0  0  0  0
    5.4905   -2.7047   -0.9584 H   0  0  0  0  0  0  0  0  0  0  0  0
    4.4244   -4.2808   -0.0638 N   0  0  0  0  0  0  0  0  0  0  0  0
    2.9595   -4.2121   -0.0492 C   0  0  0  0  0  0  0  0  0  0  0  0
    5.2010   -5.4247   -0.0782 C   0  0  0  0  0  0  0  0  0  0  0  0
    6.5213   -5.3069   -0.0860 N   0  0  0  0  0  0  0  0  0  0  0  0
    7.2971   -6.3759   -0.0997 C   0  0  0  0  0  0  0  0  0  0  0  0
    6.7067   -7.6428   -0.1059 C   0  0  0  0  0  0  0  0  0  0  0  0
    5.3114   -7.7240   -0.0973 C   0  0  0  0  0  0  0  0  0  0  0  0
    4.6042   -6.6084   -0.0783 N   0  0  0  0  0  0  0  0  0  0  0  0
    7.5394   -8.8695   -0.1218 C   0  0  0  0  0  0  0  0  0  0  0  0
    6.9262  -10.1212   -0.1335 C   0  0  0  0  0  0  0  0  0  0  0  0
    7.7165  -11.2568   -0.1482 C   0  0  0  0  0  0  0  0  0  0  0  0
    9.0963  -11.1040   -0.1508 C   0  0  0  0  0  0  0  0  0  0  0  0
    9.6376   -9.8324   -0.1386 C   0  0  0  0  0  0  0  0  0  0  0  0
    8.8622   -8.7668   -0.1302 N   0  0  0  0  0  0  0  0  0  0  0  0
    5.7410   -2.6434    1.1644 C   0  0  0  0  0  0  0  0  0  0  0  0
    5.3902   -3.2132    2.3745 C   0  0  0  0  0  0  0  0  0  0  0  0
    6.1579   -2.9901    3.4985 C   0  0  0  0  0  0  0  0  0  0  0  0
    7.2941   -2.1879    3.4241 C   0  0  0  0  0  0  0  0  0  0  0  0
    7.6321   -1.6153    2.2048 C   0  0  0  0  0  0  0  0  0  0  0  0
    6.8691   -1.8468    1.0816 C   0  0  0  0  0  0  0  0  0  0  0  0
    8.8824   -0.7882    2.4336 C   0  0  0  0  0  0  0  0  0  0  0  0
    8.9181   -0.6824    3.9766 C   0  0  0  0  0  0  0  0  0  0  0  0
    8.1892   -1.8499    4.3925 O   0  0  0  0  0  0  0  0  0  0  0  0
    0.2786   -2.8253   -0.0151 O   0  0  0  0  0  0  0  0  0  0  0  0
   -0.9613    1.8858    0.0259 H   0  0  0  0  0  0  0  0  0  0  0  0
    1.1386    3.1633    0.0082 H   0  0  0  0  0  0  0  0  0  0  0  0
    3.3032    2.0080   -0.0199 H   0  0  0  0  0  0  0  0  0  0  0  0
   -0.9242   -0.5595    0.0083 H   0  0  0  0  0  0  0  0  0  0  0  0
    2.5749   -4.7034    0.8446 H   0  0  0  0  0  0  0  0  0  0  0  0
    2.5575   -4.6942   -0.9403 H   0  0  0  0  0  0  0  0  0  0  0  0
    8.3721   -6.2726   -0.1064 H   0  0  0  0  0  0  0  0  0  0  0  0
    4.8185   -8.6850   -0.1017 H   0  0  0  0  0  0  0  0  0  0  0  0
    5.8494  -10.2034   -0.1307 H   0  0  0  0  0  0  0  0  0  0  0  0
    7.2700  -12.2401   -0.1571 H   0  0  0  0  0  0  0  0  0  0  0  0
    9.7406  -11.9707   -0.1618 H   0  0  0  0  0  0  0  0  0  0  0  0
   10.7107   -9.7102   -0.1402 H   0  0  0  0  0  0  0  0  0  0  0  0
    4.5102   -3.8358    2.4400 H   0  0  0  0  0  0  0  0  0  0  0  0
    5.8771   -3.4393    4.4397 H   0  0  0  0  0  0  0  0  0  0  0  0
    7.1493   -1.4035    0.1374 H   0  0  0  0  0  0  0  0  0  0  0  0
    9.7655   -1.3052    2.0582 H   0  0  0  0  0  0  0  0  0  0  0  0
    8.7864    0.1972    1.9777 H   0  0  0  0  0  0  0  0  0  0  0  0
    9.9442   -0.7171    4.3425 H   0  0  0  0  0  0  0  0  0  0  0  0
    8.4175    0.2255    4.3131 H   0  0  0  0  0  0  0  0  0  0  0  0
    4.4504   -0.1236   -0.0431 H   0  0  0  0  0  0  0  0  0  0  0  0
  1  6  2  0  0  0  0
  1  2  1  0  0  0  0
  1 37  1  0  0  0  0
  2  3  2  0  0  0  0
  2 38  1  0  0  0  0
  3  4  1  0  0  0  0
  3 39  1  0  0  0  0
  4 10  1  0  0  0  0
  4  5  2  0  0  0  0
  5  6  1  0  0  0  0
  5  7  1  0  0  0  0
  6 40  1  0  0  0  0
  7  8  1  0  0  0  0
  7 36  2  0  0  0  0
  8 14  1  0  0  0  0
  8  9  2  0  0  0  0
  9 10  1  0  0  0  0
  9 11  1  0  0  0  0
 10 56  1  0  0  0  0
 11 12  1  0  0  0  0
 11 13  1  0  0  0  0
 11 27  1  0  0  0  0
 13 14  1  0  0  0  0
 13 15  1  0  0  0  0
 14 41  1  0  0  0  0
 14 42  1  0  0  0  0
 15 20  2  0  0  0  0
 15 16  1  0  0  0  0
 16 17  2  0  0  0  0
 17 18  1  0  0  0  0
 17 43  1  0  0  0  0
 18 19  2  0  0  0  0
 18 21  1  0  0  0  0
 19 20  1  0  0  0  0
 19 44  1  0  0  0  0
 21 26  2  0  0  0  0
 21 22  1  0  0  0  0
 22 23  2  0  0  0  0
 22 45  1  0  0  0  0
 23 24  1  0  0  0  0
 23 46  1  0  0  0  0
 24 25  2  0  0  0  0
 24 47  1  0  0  0  0
 25 26  1  0  0  0  0
 25 48  1  0  0  0  0
 27 32  2  0  0  0  0
 27 28  1  0  0  0  0
 28 29  2  0  0  0  0
 28 49  1  0  0  0  0
 29 30  1  0  0  0  0
 29 50  1  0  0  0  0
 30 35  1  0  0  0  0
 30 31  2  0  0  0  0
 31 32  1  0  0  0  0
 31 33  1  0  0  0  0
 32 51  1  0  0  0  0
 33 34  1  0  0  0  0
 33 52  1  0  0  0  0
 33 53  1  0  0  0  0
 34 35  1  0  0  0  0
 34 54  1  0  0  0  0
 34 55  1  0  0  0  0
M  END
$$$$
CHEMBL369621
  -OEChem-07121202283D

 48 53  0     1  0  0  0  0  0999 V2000
   -0.0165    1.3628    0.0095 C   0  0  0  0  0  0  0  0  0  0  0  0
    1.1698    2.0838    0.0021 C   0  0  0  0  0  0  0  0  0  0  0  0
    2.3862    1.4376   -0.0135 C   0  0  0  0  0  0  0  0  0  0  0  0
    2.4284    0.0458   -0.0214 C   0  0  0  0  0  0  0  0  0  0  0  0
    1.2231   -0.6777   -0.0133 C   0  0  0  0  0  0  0  0  0  0  0  0
    0.0021   -0.0041    0.0020 C   0  0  0  0  0  0  0  0  0  0  0  0
    1.2934   -2.1480   -0.0219 C   0  0  0  0  0  0  0  0  0  0  0  0
    2.5744   -2.7535   -0.0380 C   0  0  0  0  0  0  0  0  0  0  0  0
    3.6874   -1.9921   -0.0449 C   0  0  0  0  0  0  0  0  0  0  0  0
    3.6240   -0.6315   -0.0374 N   0  0  0  0  0  0  0  0  0  0  0  0
    4.9010   -2.8944   -0.0614 C   0  0  2  0  0  0  0  0  0  0  0  0
    5.4905   -2.7047   -0.9584 H   0  0  0  0  0  0  0  0  0  0  0  0
    4.4244   -4.2808   -0.0638 N   0  0  0  0  0  0  0  0  0  0  0  0
    2.9595   -4.2121   -0.0492 C   0  0  0  0  0  0  0  0  0  0  0  0
    5.2051   -5.4308   -0.0782 C   0  0  0  0  0  0  0  0  0  0  0  0
    6.5891   -5.3259    0.0188 C   0  0  0  0  0  0  0  0  0  0  0  0
    7.3536   -6.4782    0.0032 C   0  0  0  0  0  0  0  0  0  0  0  0
    6.7062   -7.7017   -0.1093 C   0  0  0  0  0  0  0  0  0  0  0  0
    5.3294   -7.7321   -0.2017 C   0  0  0  0  0  0  0  0  0  0  0  0
    4.6247   -6.6165   -0.1788 N   0  0  0  0  0  0  0  0  0  0  0  0
    5.7410   -2.6434    1.1644 C   0  0  0  0  0  0  0  0  0  0  0  0
    5.3735   -3.1886    2.3809 C   0  0  0  0  0  0  0  0  0  0  0  0
    6.1411   -2.9655    3.5050 C   0  0  0  0  0  0  0  0  0  0  0  0
    7.2940   -2.1880    3.4242 C   0  0  0  0  0  0  0  0  0  0  0  0
    7.6487   -1.6398    2.1985 C   0  0  0  0  0  0  0  0  0  0  0  0
    6.8857   -1.8714    1.0753 C   0  0  0  0  0  0  0  0  0  0  0  0
    8.9149   -0.8355    2.4211 C   0  0  0  0  0  0  0  0  0  0  0  0
    8.9464   -0.7086    3.9626 C   0  0  0  0  0  0  0  0  0  0  0  0
    8.1919   -1.8548    4.3916 O   0  0  0  0  0  0  0  0  0  0  0  0
    0.2786   -2.8253   -0.0151 O   0  0  0  0  0  0  0  0  0  0  0  0
   -0.9613    1.8858    0.0259 H   0  0  0  0  0  0  0  0  0  0  0  0
    1.1386    3.1633    0.0082 H   0  0  0  0  0  0  0  0  0  0  0  0
    3.3032    2.0080   -0.0199 H   0  0  0  0  0  0  0  0  0  0  0  0
   -0.9242   -0.5595    0.0083 H   0  0  0  0  0  0  0  0  0  0  0  0
    2.5749   -4.7034    0.8446 H   0  0  0  0  0  0  0  0  0  0  0  0
    2.5575   -4.6942   -0.9403 H   0  0  0  0  0  0  0  0  0  0  0  0
    7.0599   -4.3577    0.1048 H   0  0  0  0  0  0  0  0  0  0  0  0
    8.4300   -6.4277    0.0766 H   0  0  0  0  0  0  0  0  0  0  0  0
    7.2743   -8.6201   -0.1248 H   0  0  0  0  0  0  0  0  0  0  0  0
    4.8220   -8.6814   -0.2897 H   0  0  0  0  0  0  0  0  0  0  0  0
    4.4806   -3.7920    2.4513 H   0  0  0  0  0  0  0  0  0  0  0  0
    5.8473   -3.3954    4.4512 H   0  0  0  0  0  0  0  0  0  0  0  0
    7.1788   -1.4475    0.1262 H   0  0  0  0  0  0  0  0  0  0  0  0
    9.7886   -1.3759    2.0568 H   0  0  0  0  0  0  0  0  0  0  0  0
    8.8412    0.1451    1.9509 H   0  0  0  0  0  0  0  0  0  0  0  0
    9.9701   -0.7593    4.3334 H   0  0  0  0  0  0  0  0  0  0  0  0
    8.4633    0.2141    4.2840 H   0  0  0  0  0  0  0  0  0  0  0  0
    4.4504   -0.1236   -0.0431 H   0  0  0  0  0  0  0  0  0  0  0  0
  1  6  2  0  0  0  0
  1  2  1  0  0  0  0
  1 31  1  0  0  0  0
  2  3  2  0  0  0  0
  2 32  1  0  0  0  0
  3  4  1  0  0  0  0
  3 33  1  0  0  0  0
  4 10  1  0  0  0  0
  4  5  2  0  0  0  0
  5  6  1  0  0  0  0
  5  7  1  0  0  0  0
  6 34  1  0  0  0  0
  7  8  1  0  0  0  0
  7 30  2  0  0  0  0
  8 14  1  0  0  0  0
  8  9  2  0  0  0  0
  9 10  1  0  0  0  0
  9 11  1  0  0  0  0
 10 48  1  0  0  0  0
 11 12  1  0  0  0  0
 11 13  1  0  0  0  0
 11 21  1  0  0  0  0
 13 14  1  0  0  0  0
 13 15  1  0  0  0  0
 14 35  1  0  0  0  0
 14 36  1  0  0  0  0
 15 20  2  0  0  0  0
 15 16  1  0  0  0  0
 16 17  2  0  0  0  0
 16 37  1  0  0  0  0
 17 18  1  0  0  0  0
 17 38  1  0  0  0  0
 18 19  2  0  0  0  0
 18 39  1  0  0  0  0
 19 20  1  0  0  0  0
 19 40  1  0  0  0  0
 21 26  2  0  0  0  0
 21 22  1  0  0  0  0
 22 23  2  0  0  0  0
 22 41  1  0  0  0  0
 23 24  1  0  0  0  0
 23 42  1  0  0  0  0
 24 29  1  0  0  0  0
 24 25  2  0  0  0  0
 25 26  1  0  0  0  0
 25 27  1  0  0  0  0
 26 43  1  0  0  0  0
 27 28  1  0  0  0  0
 27 44  1  0  0  0  0
 27 45  1  0  0  0  0
 28 29  1  0  0  0  0
 28 46  1  0  0  0  0
 28 47  1  0  0  0  0
M  END
$$$$
CHEMBL369621
  -OEChem-07121202283D

 49 54  0     1  0  0  0  0  0999 V2000
   -0.0165    1.3628    0.0095 C   0  0  0  0  0  0  0  0  0  0  0  0
    1.1698    2.0838    0.0021 C   0  0  0  0  0  0  0  0  0  0  0  0
    2.3862    1.4376   -0.0135 C   0  0  0  0  0  0  0  0  0  0  0  0
    2.4284    0.0458   -0.0214 C   0  0  0  0  0  0  0  0  0  0  0  0
    1.2231   -0.6777   -0.0133 C   0  0  0  0  0  0  0  0  0  0  0  0
    0.0021   -0.0041    0.0020 C   0  0  0  0  0  0  0  0  0  0  0  0
    1.2934   -2.1480   -0.0219 C   0  0  0  0  0  0  0  0  0  0  0  0
    2.5744   -2.7535   -0.0380 C   0  0  0  0  0  0  0  0  0  0  0  0
    3.6874   -1.9921   -0.0449 C   0  0  0  0  0  0  0  0  0  0  0  0
    3.6240   -0.6315   -0.0374 N   0  0  0  0  0  0  0  0  0  0  0  0
    4.9010   -2.8944   -0.0614 C   0  0  2  0  0  0  0  0  0  0  0  0
    5.4905   -2.7047   -0.9584 H   0  0  0  0  0  0  0  0  0  0  0  0
    4.4244   -4.2808   -0.0638 N   0  0  0  0  0  0  0  0  0  0  0  0
    2.9595   -4.2121   -0.0492 C   0  0  0  0  0  0  0  0  0  0  0  0
    5.2051   -5.4308   -0.0782 C   0  0  0  0  0  0  0  0  0  0  0  0
    6.5922   -5.3224   -0.0865 C   0  0  0  0  0  0  0  0  0  0  0  0
    7.3567   -6.4748   -0.1008 C   0  0  0  0  0  0  0  0  0  0  0  0
    6.7061   -7.7018   -0.1064 C   0  0  0  0  0  0  0  0  0  0  0  0
    5.3263   -7.7355   -0.0976 C   0  0  0  0  0  0  0  0  0  0  0  0
    4.6221   -6.6195   -0.0785 N   0  3  0  0  0  0  0  0  0  0  0  0
    5.7410   -2.6434    1.1644 C   0  0  0  0  0  0  0  0  0  0  0  0
    5.3735   -3.1886    2.3809 C   0  0  0  0  0  0  0  0  0  0  0  0
    6.1411   -2.9655    3.5050 C   0  0  0  0  0  0  0  0  0  0  0  0
    7.2940   -2.1880    3.4242 C   0  0  0  0  0  0  0  0  0  0  0  0
    7.6487   -1.6398    2.1985 C   0  0  0  0  0  0  0  0  0  0  0  0
    6.8857   -1.8714    1.0753 C   0  0  0  0  0  0  0  0  0  0  0  0
    8.9149   -0.8355    2.4211 C   0  0  0  0  0  0  0  0  0  0  0  0
    8.9464   -0.7086    3.9626 C   0  0  0  0  0  0  0  0  0  0  0  0
    8.1919   -1.8548    4.3916 O   0  0  0  0  0  0  0  0  0  0  0  0
    0.2786   -2.8253   -0.0151 O   0  0  0  0  0  0  0  0  0  0  0  0
   -0.9613    1.8858    0.0259 H   0  0  0  0  0  0  0  0  0  0  0  0
    1.1386    3.1633    0.0082 H   0  0  0  0  0  0  0  0  0  0  0  0
    3.3032    2.0080   -0.0199 H   0  0  0  0  0  0  0  0  0  0  0  0
   -0.9242   -0.5595    0.0083 H   0  0  0  0  0  0  0  0  0  0  0  0
    2.5749   -4.7034    0.8446 H   0  0  0  0  0  0  0  0  0  0  0  0
    2.5575   -4.6942   -0.9403 H   0  0  0  0  0  0  0  0  0  0  0  0
    7.0654   -4.3517   -0.0822 H   0  0  0  0  0  0  0  0  0  0  0  0
    8.4354   -6.4218   -0.1079 H   0  0  0  0  0  0  0  0  0  0  0  0
    7.2741   -8.6203   -0.1179 H   0  0  0  0  0  0  0  0  0  0  0  0
    4.8164   -8.6875   -0.1023 H   0  0  0  0  0  0  0  0  0  0  0  0
    4.4806   -3.7920    2.4513 H   0  0  0  0  0  0  0  0  0  0  0  0
    5.8473   -3.3954    4.4512 H   0  0  0  0  0  0  0  0  0  0  0  0
    7.1788   -1.4475    0.1262 H   0  0  0  0  0  0  0  0  0  0  0  0
    9.7886   -1.3759    2.0568 H   0  0  0  0  0  0  0  0  0  0  0  0
    8.8412    0.1451    1.9509 H   0  0  0  0  0  0  0  0  0  0  0  0
    9.9701   -0.7593    4.3334 H   0  0  0  0  0  0  0  0  0  0  0  0
    8.4633    0.2141    4.2840 H   0  0  0  0  0  0  0  0  0  0  0  0
    4.4504   -0.1236   -0.0431 H   0  0  0  0  0  0  0  0  0  0  0  0
    3.6536   -6.6714   -0.0686 H   0  0  0  0  0  0  0  0  0  0  0  0
  1  6  2  0  0  0  0
  1  2  1  0  0  0  0
  1 31  1  0  0  0  0
  2  3  2  0  0  0  0
  2 32  1  0  0  0  0
  3  4  1  0  0  0  0
  3 33  1  0  0  0  0
  4 10  1  0  0  0  0
  4  5  2  0  0  0  0
  5  6  1  0  0  0  0
  5  7  1  0  0  0  0
  6 34  1  0  0  0  0
  7  8  1  0  0  0  0
  7 30  2  0  0  0  0
  8 14  1  0  0  0  0
  8  9  2  0  0  0  0
  9 10  1  0  0  0  0
  9 11  1  0  0  0  0
 10 48  1  0  0  0  0
 11 12  1  0  0  0  0
 11 13  1  0  0  0  0
 11 21  1  0  0  0  0
 13 14  1  0  0  0  0
 13 15  1  0  0  0  0
 14 35  1  0  0  0  0
 14 36  1  0  0  0  0
 15 20  2  0  0  0  0
 15 16  1  0  0  0  0
 16 17  2  0  0  0  0
 16 37  1  0  0  0  0
 17 18  1  0  0  0  0
 17 38  1  0  0  0  0
 18 19  2  0  0  0  0
 18 39  1  0  0  0  0
 19 20  1  0  0  0  0
 19 40  1  0  0  0  0
 20 49  1  0  0  0  0
 21 26  2  0  0  0  0
 21 22  1  0  0  0  0
 22 23  2  0  0  0  0
 22 41  1  0  0  0  0
 23 24  1  0  0  0  0
 23 42  1  0  0  0  0
 24 29  1  0  0  0  0
 24 25  2  0  0  0  0
 25 26  1  0  0  0  0
 25 27  1  0  0  0  0
 26 43  1  0  0  0  0
 27 28  1  0  0  0  0
 27 44  1  0  0  0  0
 27 45  1  0  0  0  0
 28 29  1  0  0  0  0
 28 46  1  0  0  0  0
 28 47  1  0  0  0  0
M  CHG  1  20   1
M  END
$$$$
CHEMBL173728
  -OEChem-07121202283D

 56 62  0     1  0  0  0  0  0999 V2000
   -0.0165    1.3628    0.0095 C   0  0  0  0  0  0  0  0  0  0  0  0
    1.1698    2.0838    0.0021 C   0  0  0  0  0  0  0  0  0  0  0  0
    2.3862    1.4376   -0.0135 C   0  0  0  0  0  0  0  0  0  0  0  0
    2.4284    0.0458   -0.0214 C   0  0  0  0  0  0  0  0  0  0  0  0
    1.2231   -0.6777   -0.0133 C   0  0  0  0  0  0  0  0  0  0  0  0
    0.0021   -0.0041    0.0020 C   0  0  0  0  0  0  0  0  0  0  0  0
    1.2934   -2.1480   -0.0219 C   0  0  0  0  0  0  0  0  0  0  0  0
    2.5744   -2.7535   -0.0380 C   0  0  0  0  0  0  0  0  0  0  0  0
    3.6874   -1.9921   -0.0449 C   0  0  0  0  0  0  0  0  0  0  0  0
    3.6240   -0.6315   -0.0374 N   0  0  0  0  0  0  0  0  0  0  0  0
    4.9010   -2.8944   -0.0614 C   0  0  2  0  0  0  0  0  0  0  0  0
    4.4244   -4.2808   -0.0638 N   0  0  3  0  0  0  0  0  0  0  0  0
    2.9595   -4.2121   -0.0492 C   0  0  0  0  0  0  0  0  0  0  0  0
    5.2096   -5.4375   -0.0783 C   0  0  0  0  0  0  0  0  0  0  0  0
    6.5950   -5.3367   -0.0866 C   0  0  0  0  0  0  0  0  0  0  0  0
    7.3699   -6.4791   -0.1010 C   0  0  0  0  0  0  0  0  0  0  0  0
    6.7648   -7.7285   -0.1076 C   0  0  0  0  0  0  0  0  0  0  0  0
    5.3803   -7.8297   -0.0998 C   0  0  0  0  0  0  0  0  0  0  0  0
    4.6047   -6.6879   -0.0787 C   0  0  0  0  0  0  0  0  0  0  0  0
    7.5533   -8.8899   -0.1226 N   0  0  0  0  0  0  0  0  0  0  0  0
    7.0988  -10.1830   -0.1361 C   0  0  0  0  0  0  0  0  0  0  0  0
    8.1856  -10.9784   -0.1478 C   0  0  0  0  0  0  0  0  0  0  0  0
    9.2759  -10.1974   -0.1416 N   0  0  0  0  0  0  0  0  0  0  0  0
    8.9101   -8.9443   -0.1325 C   0  0  0  0  0  0  0  0  0  0  0  0
    5.7400   -2.6447    1.1653 C   0  0  0  0  0  0  0  0  0  0  0  0
    5.3716   -3.1912    2.3810 C   0  0  0  0  0  0  0  0  0  0  0  0
    6.1382   -2.9693    3.5059 C   0  0  0  0  0  0  0  0  0  0  0  0
    7.2912   -2.1918    3.4269 C   0  0  0  0  0  0  0  0  0  0  0  0
    7.6469   -1.6423    2.2020 C   0  0  0  0  0  0  0  0  0  0  0  0
    6.8848   -1.8727    1.0780 C   0  0  0  0  0  0  0  0  0  0  0  0
    8.9129   -0.8383    2.4265 C   0  0  0  0  0  0  0  0  0  0  0  0
    8.9432   -0.7130    3.9682 C   0  0  0  0  0  0  0  0  0  0  0  0
    8.1884   -1.8597    4.3954 O   0  0  0  0  0  0  0  0  0  0  0  0
    0.2786   -2.8253   -0.0151 O   0  0  0  0  0  0  0  0  0  0  0  0
   -0.9613    1.8858    0.0259 H   0  0  0  0  0  0  0  0  0  0  0  0
    1.1386    3.1633    0.0082 H   0  0  0  0  0  0  0  0  0  0  0  0
    3.3032    2.0080   -0.0199 H   0  0  0  0  0  0  0  0  0  0  0  0
   -0.9242   -0.5595    0.0083 H   0  0  0  0  0  0  0  0  0  0  0  0
    5.4905   -2.7047   -0.9584 H   0  0  0  0  0  0  0  0  0  0  0  0
    2.5749   -4.7034    0.8446 H   0  0  0  0  0  0  0  0  0  0  0  0
    2.5575   -4.6942   -0.9403 H   0  0  0  0  0  0  0  0  0  0  0  0
    7.0658   -4.3648   -0.0822 H   0  0  0  0  0  0  0  0  0  0  0  0
    8.4470   -6.4008   -0.1074 H   0  0  0  0  0  0  0  0  0  0  0  0
    4.9100   -8.8019   -0.1056 H   0  0  0  0  0  0  0  0  0  0  0  0
    3.5276   -6.7668   -0.0674 H   0  0  0  0  0  0  0  0  0  0  0  0
    6.0672  -10.5026   -0.1372 H   0  0  0  0  0  0  0  0  0  0  0  0
    8.1801  -12.0583   -0.1599 H   0  0  0  0  0  0  0  0  0  0  0  0
    9.5751   -8.0934   -0.1301 H   0  0  0  0  0  0  0  0  0  0  0  0
    4.4786   -3.7947    2.4500 H   0  0  0  0  0  0  0  0  0  0  0  0
    5.8437   -3.4003    4.4514 H   0  0  0  0  0  0  0  0  0  0  0  0
    7.1787   -1.4477    0.1296 H   0  0  0  0  0  0  0  0  0  0  0  0
    9.7869   -1.3782    2.0623 H   0  0  0  0  0  0  0  0  0  0  0  0
    8.8396    0.1429    1.9573 H   0  0  0  0  0  0  0  0  0  0  0  0
    9.9666   -0.7641    4.3397 H   0  0  0  0  0  0  0  0  0  0  0  0
    8.4599    0.2094    4.2902 H   0  0  0  0  0  0  0  0  0  0  0  0
    4.4504   -0.1236   -0.0431 H   0  0  0  0  0  0  0  0  0  0  0  0
  1  6  2  0  0  0  0
  1  2  1  0  0  0  0
  1 35  1  0  0  0  0
  2  3  2  0  0  0  0
  2 36  1  0  0  0  0
  3  4  1  0  0  0  0
  3 37  1  0  0  0  0
  4 10  1  0  0  0  0
  4  5  2  0  0  0  0
  5  6  1  0  0  0  0
  5  7  1  0  0  0  0
  6 38  1  0  0  0  0
  7  8  1  0  0  0  0
  7 34  2  0  0  0  0
  8 13  1  0  0  0  0
  8  9  2  0  0  0  0
  9 10  1  0  0  0  0
  9 11  1  0  0  0  0
 10 56  1  0  0  0  0
 11 12  1  0  0  0  0
 11 25  1  0  0  0  0
 11 39  1  0  0  0  0
 12 13  1  0  0  0  0
 12 14  1  0  0  0  0
 13 40  1  0  0  0  0
 13 41  1  0  0  0  0
 14 19  2  0  0  0  0
 14 15  1  0  0  0  0
 15 16  2  0  0  0  0
 15 42  1  0  0  0  0
 16 17  1  0  0  0  0
 16 43  1  0  0  0  0
 17 18  2  0  0  0  0
 17 20  1  0  0  0  0
 18 19  1  0  0  0  0
 18 44  1  0  0  0  0
 19 45  1  0  0  0  0
 20 24  1  0  0  0  0
 20 21  1  0  0  0  0
 21 22  2  0  0  0  0
 21 46  1  0  0  0  0
 22 23  1  0  0  0  0
 22 47  1  0  0  0  0
 23 24  2  0  0  0  0
 24 48  1  0  0  0  0
 25 30  2  0  0  0  0
 25 26  1  0  0  0  0
 26 27  2  0  0  0  0
 26 49  1  0  0  0  0
 27 28  1  0  0  0  0
 27 50  1  0  0  0  0
 28 33  1  0  0  0  0
 28 29  2  0  0  0  0
 29 30  1  0  0  0  0
 29 31  1  0  0  0  0
 30 51  1  0  0  0  0
 31 32  1  0  0  0  0
 31 52  1  0  0  0  0
 31 53  1  0  0  0  0
 32 33  1  0  0  0  0
 32 54  1  0  0  0  0
 32 55  1  0  0  0  0
M  END
$$$$
CHEMBL173728
  -OEChem-07121202283D

 56 62  0     1  0  0  0  0  0999 V2000
   -0.0165    1.3628    0.0095 C   0  0  0  0  0  0  0  0  0  0  0  0
    1.1698    2.0838    0.0021 C   0  0  0  0  0  0  0  0  0  0  0  0
    2.3862    1.4376   -0.0135 C   0  0  0  0  0  0  0  0  0  0  0  0
    2.4284    0.0458   -0.0214 C   0  0  0  0  0  0  0  0  0  0  0  0
    1.2231   -0.6777   -0.0133 C   0  0  0  0  0  0  0  0  0  0  0  0
    0.0021   -0.0041    0.0020 C   0  0  0  0  0  0  0  0  0  0  0  0
    1.2934   -2.1480   -0.0219 C   0  0  0  0  0  0  0  0  0  0  0  0
    2.5744   -2.7535   -0.0380 C   0  0  0  0  0  0  0  0  0  0  0  0
    3.6874   -1.9921   -0.0449 C   0  0  0  0  0  0  0  0  0  0  0  0
    3.6240   -0.6315   -0.0374 N   0  0  0  0  0  0  0  0  0  0  0  0
    4.9010   -2.8944   -0.0614 C   0  0  1  0  0  0  0  0  0  0  0  0
    4.4244   -4.2808   -0.0638 N   0  0  3  0  0  0  0  0  0  0  0  0
    2.9595   -4.2121   -0.0492 C   0  0  0  0  0  0  0  0  0  0  0  0
    5.2096   -5.4375   -0.0783 C   0  0  0  0  0  0  0  0  0  0  0  0
    6.5950   -5.3367   -0.0866 C   0  0  0  0  0  0  0  0  0  0  0  0
    7.3699   -6.4791   -0.1010 C   0  0  0  0  0  0  0  0  0  0  0  0
    6.7648   -7.7285   -0.1076 C   0  0  0  0  0  0  0  0  0  0  0  0
    5.3803   -7.8297   -0.0998 C   0  0  0  0  0  0  0  0  0  0  0  0
    4.6047   -6.6879   -0.0787 C   0  0  0  0  0  0  0  0  0  0  0  0
    7.5533   -8.8899   -0.1226 N   0  0  0  0  0  0  0  0  0  0  0  0
    7.0988  -10.1830   -0.1361 C   0  0  0  0  0  0  0  0  0  0  0  0
    8.1856  -10.9784   -0.1478 C   0  0  0  0  0  0  0  0  0  0  0  0
    9.2759  -10.1974   -0.1416 N   0  0  0  0  0  0  0  0  0  0  0  0
    8.9101   -8.9443   -0.1325 C   0  0  0  0  0  0  0  0  0  0  0  0
    5.7160   -2.6321   -1.3016 C   0  0  0  0  0  0  0  0  0  0  0  0
    5.3175   -3.1566   -2.5175 C   0  0  0  0  0  0  0  0  0  0  0  0
    6.0575   -2.9160   -3.6564 C   0  0  0  0  0  0  0  0  0  0  0  0
    7.2137   -2.1421   -3.5913 C   0  0  0  0  0  0  0  0  0  0  0  0
    7.6077   -1.6269   -2.3632 C   0  0  0  0  0  0  0  0  0  0  0  0
    6.8623   -1.8609   -1.2287 C   0  0  0  0  0  0  0  0  0  0  0  0
    8.8947   -0.8593   -2.5955 C   0  0  0  0  0  0  0  0  0  0  0  0
    9.3231   -1.3682   -3.9922 C   0  0  0  0  0  0  0  0  0  0  0  0
    8.0751   -1.7745   -4.5793 O   0  0  0  0  0  0  0  0  0  0  0  0
    0.2786   -2.8253   -0.0151 O   0  0  0  0  0  0  0  0  0  0  0  0
   -0.9613    1.8858    0.0259 H   0  0  0  0  0  0  0  0  0  0  0  0
    1.1386    3.1633    0.0082 H   0  0  0  0  0  0  0  0  0  0  0  0
    3.3032    2.0080   -0.0199 H   0  0  0  0  0  0  0  0  0  0  0  0
   -0.9242   -0.5595    0.0083 H   0  0  0  0  0  0  0  0  0  0  0  0
    5.5079   -2.7138    0.8259 H   0  0  0  0  0  0  0  0  0  0  0  0
    2.5749   -4.7034    0.8446 H   0  0  0  0  0  0  0  0  0  0  0  0
    2.5575   -4.6942   -0.9403 H   0  0  0  0  0  0  0  0  0  0  0  0
    7.0658   -4.3648   -0.0822 H   0  0  0  0  0  0  0  0  0  0  0  0
    8.4470   -6.4008   -0.1074 H   0  0  0  0  0  0  0  0  0  0  0  0
    4.9100   -8.8019   -0.1056 H   0  0  0  0  0  0  0  0  0  0  0  0
    3.5276   -6.7668   -0.0674 H   0  0  0  0  0  0  0  0  0  0  0  0
    6.0672  -10.5026   -0.1372 H   0  0  0  0  0  0  0  0  0  0  0  0
    8.1801  -12.0583   -0.1599 H   0  0  0  0  0  0  0  0  0  0  0  0
    9.5751   -8.0934   -0.1301 H   0  0  0  0  0  0  0  0  0  0  0  0
    4.4224   -3.7581   -2.5755 H   0  0  0  0  0  0  0  0  0  0  0  0
    5.7390   -3.3290   -4.6021 H   0  0  0  0  0  0  0  0  0  0  0  0
    7.1746   -1.4455   -0.2820 H   0  0  0  0  0  0  0  0  0  0  0  0
    8.7100    0.2148   -2.6121 H   0  0  0  0  0  0  0  0  0  0  0  0
    9.6409   -1.1132   -1.8427 H   0  0  0  0  0  0  0  0  0  0  0  0
    9.7796   -0.5661   -4.5722 H   0  0  0  0  0  0  0  0  0  0  0  0
   10.0020   -2.2162   -3.9028 H   0  0  0  0  0  0  0  0  0  0  0  0
    4.4504   -0.1236   -0.0431 H   0  0  0  0  0  0  0  0  0  0  0  0
  1  6  2  0  0  0  0
  1  2  1  0  0  0  0
  1 35  1  0  0  0  0
  2  3  2  0  0  0  0
  2 36  1  0  0  0  0
  3  4  1  0  0  0  0
  3 37  1  0  0  0  0
  4 10  1  0  0  0  0
  4  5  2  0  0  0  0
  5  6  1  0  0  0  0
  5  7  1  0  0  0  0
  6 38  1  0  0  0  0
  7  8  1  0  0  0  0
  7 34  2  0  0  0  0
  8 13  1  0  0  0  0
  8  9  2  0  0  0  0
  9 10  1  0  0  0  0
  9 11  1  0  0  0  0
 10 56  1  0  0  0  0
 11 12  1  0  0  0  0
 11 25  1  0  0  0  0
 11 39  1  0  0  0  0
 12 13  1  0  0  0  0
 12 14  1  0  0  0  0
 13 40  1  0  0  0  0
 13 41  1  0  0  0  0
 14 19  2  0  0  0  0
 14 15  1  0  0  0  0
 15 16  2  0  0  0  0
 15 42  1  0  0  0  0
 16 17  1  0  0  0  0
 16 43  1  0  0  0  0
 17 18  2  0  0  0  0
 17 20  1  0  0  0  0
 18 19  1  0  0  0  0
 18 44  1  0  0  0  0
 19 45  1  0  0  0  0
 20 24  1  0  0  0  0
 20 21  1  0  0  0  0
 21 22  2  0  0  0  0
 21 46  1  0  0  0  0
 22 23  1  0  0  0  0
 22 47  1  0  0  0  0
 23 24  2  0  0  0  0
 24 48  1  0  0  0  0
 25 30  2  0  0  0  0
 25 26  1  0  0  0  0
 26 27  2  0  0  0  0
 26 49  1  0  0  0  0
 27 28  1  0  0  0  0
 27 50  1  0  0  0  0
 28 33  1  0  0  0  0
 28 29  2  0  0  0  0
 29 30  1  0  0  0  0
 29 31  1  0  0  0  0
 30 51  1  0  0  0  0
 31 32  1  0  0  0  0
 31 52  1  0  0  0  0
 31 53  1  0  0  0  0
 32 33  1  0  0  0  0
 32 54  1  0  0  0  0
 32 55  1  0  0  0  0
M  END
$$$$
CHEMBL177542
  -OEChem-07121202283D

 50 55  0     1  0  0  0  0  0999 V2000
   -0.0178    1.4608    0.0101 C   0  0  0  0  0  0  0  0  0  0  0  0
    0.0021   -0.0041    0.0020 N   0  0  0  0  0  0  0  0  0  0  0  0
    0.0068   -0.7673   -1.2592 C   0  0  0  0  0  0  0  0  0  0  0  0
   -1.0044   -1.8902   -1.1475 C   0  0  0  0  0  0  0  0  0  0  0  0
   -1.7594   -2.1597   -2.0575 O   0  0  0  0  0  0  0  0  0  0  0  0
   -1.0231   -2.5855    0.0310 N   0  0  0  0  0  0  0  0  0  0  0  0
   -0.0136   -2.2214    1.0035 C   0  0  1  0  0  0  0  0  0  0  0  0
    0.9304   -2.4545    0.5109 H   0  0  0  0  0  0  0  0  0  0  0  0
    0.0229   -0.7240    1.1630 C   0  0  0  0  0  0  0  0  0  0  0  0
    0.0647   -0.1915    2.2519 O   0  0  0  0  0  0  0  0  0  0  0  0
    0.0341   -2.9787    2.2797 C   0  0  0  0  0  0  0  0  0  0  0  0
   -1.2245   -3.7255    2.6832 C   0  0  2  0  0  0  0  0  0  0  0  0
   -0.7872   -4.9474    3.4679 C   0  0  0  0  0  0  0  0  0  0  0  0
   -0.3375   -5.0452    4.7676 C   0  0  0  0  0  0  0  0  0  0  0  0
   -0.0220   -6.3185    5.2299 C   0  0  0  0  0  0  0  0  0  0  0  0
   -0.1546   -7.4308    4.4238 C   0  0  0  0  0  0  0  0  0  0  0  0
   -0.5987   -7.3391    3.1135 C   0  0  0  0  0  0  0  0  0  0  0  0
   -0.9106   -6.0656    2.6360 C   0  0  0  0  0  0  0  0  0  0  0  0
   -1.3269   -5.6920    1.3591 N   0  0  0  0  0  0  0  0  0  0  0  0
   -1.9381   -4.3696    1.4982 C   0  0  2  0  0  0  0  0  0  0  0  0
   -2.0563   -3.5740    0.2505 C   0  0  1  0  0  0  0  0  0  0  0  0
   -2.0655   -4.2524   -0.6026 H   0  0  0  0  0  0  0  0  0  0  0  0
   -3.3853   -2.8647    0.2935 C   0  0  0  0  0  0  0  0  0  0  0  0
   -3.4948   -1.6431    0.9315 C   0  0  0  0  0  0  0  0  0  0  0  0
   -4.7116   -0.9884    0.9732 C   0  0  0  0  0  0  0  0  0  0  0  0
   -5.8252   -1.5560    0.3756 C   0  0  0  0  0  0  0  0  0  0  0  0
   -5.7149   -2.7867   -0.2670 C   0  0  0  0  0  0  0  0  0  0  0  0
   -4.4909   -3.4344   -0.3098 C   0  0  0  0  0  0  0  0  0  0  0  0
   -6.9375   -3.1277   -0.7692 O   0  0  0  0  0  0  0  0  0  0  0  0
   -7.8841   -2.2922   -0.0770 C   0  0  0  0  0  0  0  0  0  0  0  0
   -7.1169   -1.1260    0.2759 O   0  0  0  0  0  0  0  0  0  0  0  0
    1.0048    1.8381    0.0023 H   0  0  0  0  0  0  0  0  0  0  0  0
   -0.5450    1.8219   -0.8730 H   0  0  0  0  0  0  0  0  0  0  0  0
   -0.5280    1.8123    0.9069 H   0  0  0  0  0  0  0  0  0  0  0  0
   -0.2654   -0.1105   -2.0855 H   0  0  0  0  0  0  0  0  0  0  0  0
    0.9991   -1.1841   -1.4311 H   0  0  0  0  0  0  0  0  0  0  0  0
    0.8466   -3.7020    2.2112 H   0  0  0  0  0  0  0  0  0  0  0  0
    0.2793   -2.2777    3.0775 H   0  0  0  0  0  0  0  0  0  0  0  0
   -1.8983   -3.0863    3.2537 H   0  0  0  0  0  0  0  0  0  0  0  0
   -0.2347   -4.1737    5.3971 H   0  0  0  0  0  0  0  0  0  0  0  0
    0.3351   -6.4393    6.2420 H   0  0  0  0  0  0  0  0  0  0  0  0
    0.0954   -8.4017    4.8255 H   0  0  0  0  0  0  0  0  0  0  0  0
   -0.6988   -8.2150    2.4897 H   0  0  0  0  0  0  0  0  0  0  0  0
   -1.2305   -6.2057    0.5419 H   0  0  0  0  0  0  0  0  0  0  0  0
   -2.9597   -4.5514    1.8320 H   0  0  0  0  0  0  0  0  0  0  0  0
   -2.6279   -1.1994    1.3985 H   0  0  0  0  0  0  0  0  0  0  0  0
   -4.7943   -0.0341    1.4722 H   0  0  0  0  0  0  0  0  0  0  0  0
   -4.4014   -4.3867   -0.8113 H   0  0  0  0  0  0  0  0  0  0  0  0
   -8.7100   -2.0226   -0.7352 H   0  0  0  0  0  0  0  0  0  0  0  0
   -8.2540   -2.7926    0.8180 H   0  0  0  0  0  0  0  0  0  0  0  0
  1  2  1  0  0  0  0
  1 32  1  0  0  0  0
  1 33  1  0  0  0  0
  1 34  1  0  0  0  0
  2  9  1  0  0  0  0
  2  3  1  0  0  0  0
  3  4  1  0  0  0  0
  3 35  1  0  0  0  0
  3 36  1  0  0  0  0
  4  5  2  0  0  0  0
  4  6  1  0  0  0  0
  6 21  1  0  0  0  0
  6  7  1  0  0  0  0
  7  8  1  0  0  0  0
  7  9  1  0  0  0  0
  7 11  1  0  0  0  0
  9 10  2  0  0  0  0
 11 12  1  0  0  0  0
 11 37  1  0  0  0  0
 11 38  1  0  0  0  0
 12 20  1  0  0  0  0
 12 13  1  0  0  0  0
 12 39  1  0  0  0  0
 13 18  2  0  0  0  0
 13 14  1  0  0  0  0
 14 15  2  0  0  0  0
 14 40  1  0  0  0  0
 15 16  1  0  0  0  0
 15 41  1  0  0  0  0
 16 17  2  0  0  0  0
 16 42  1  0  0  0  0
 17 18  1  0  0  0  0
 17 43  1  0  0  0  0
 18 19  1  0  0  0  0
 19 20  1  0  0  0  0
 19 44  1  0  0  0  0
 20 21  1  0  0  0  0
 20 45  1  0  0  0  0
 21 22  1  0  0  0  0
 21 23  1  0  0  0  0
 23 28  2  0  0  0  0
 23 24  1  0  0  0  0
 24 25  2  0  0  0  0
 24 46  1  0  0  0  0
 25 26  1  0  0  0  0
 25 47  1  0  0  0  0
 26 31  1  0  0  0  0
 26 27  2  0  0  0  0
 27 28  1  0  0  0  0
 27 29  1  0  0  0  0
 28 48  1  0  0  0  0
 29 30  1  0  0  0  0
 30 31  1  0  0  0  0
 30 49  1  0  0  0  0
 30 50  1  0  0  0  0
M  END
$$$$
CHEMBL177542
  -OEChem-07121202283D

 50 55  0     1  0  0  0  0  0999 V2000
    0.1281    1.2158    1.5613 C   0  0  0  0  0  0  0  0  0  0  0  0
    0.1089   -0.1975    1.1761 N   0  0  0  0  0  0  0  0  0  0  0  0
    0.2435   -0.6120   -0.2314 C   0  0  0  0  0  0  0  0  0  0  0  0
   -0.7881   -1.6846   -0.5097 C   0  0  0  0  0  0  0  0  0  0  0  0
   -1.4584   -1.6691   -1.5203 O   0  0  0  0  0  0  0  0  0  0  0  0
   -0.9330   -2.6713    0.4257 N   0  0  0  0  0  0  0  0  0  0  0  0
   -0.0622   -2.6045    1.5870 C   0  0  1  0  0  0  0  0  0  0  0  0
    0.9455   -2.8209    1.2323 H   0  0  0  0  0  0  0  0  0  0  0  0
   -0.0284   -1.1846    2.1043 C   0  0  0  0  0  0  0  0  0  0  0  0
   -0.1227   -0.9362    3.2876 O   0  0  0  0  0  0  0  0  0  0  0  0
   -0.3410   -3.5749    2.7195 C   0  0  0  0  0  0  0  0  0  0  0  0
   -1.7422   -4.1361    2.5796 C   0  0  2  0  0  0  0  0  0  0  0  0
   -2.0916   -5.2930    3.4518 C   0  0  0  0  0  0  0  0  0  0  0  0
   -1.8295   -5.5570    4.7790 C   0  0  0  0  0  0  0  0  0  0  0  0
   -2.3132   -6.7524    5.2976 C   0  0  0  0  0  0  0  0  0  0  0  0
   -3.0264   -7.6413    4.5195 C   0  0  0  0  0  0  0  0  0  0  0  0
   -3.2949   -7.3900    3.1825 C   0  0  0  0  0  0  0  0  0  0  0  0
   -2.8158   -6.1974    2.6491 C   0  0  0  0  0  0  0  0  0  0  0  0
   -2.9321   -5.7082    1.3413 N   0  0  0  0  0  0  0  0  0  0  0  0
   -1.7750   -4.8171    1.1685 C   0  0  1  0  0  0  0  0  0  0  0  0
   -1.9672   -3.6822    0.1830 C   0  0  1  0  0  0  0  0  0  0  0  0
   -1.8890   -4.0479   -0.8409 H   0  0  0  0  0  0  0  0  0  0  0  0
   -3.3293   -3.0774    0.4066 C   0  0  0  0  0  0  0  0  0  0  0  0
   -3.4811   -2.0296    1.2956 C   0  0  0  0  0  0  0  0  0  0  0  0
   -4.7284   -1.4711    1.5038 C   0  0  0  0  0  0  0  0  0  0  0  0
   -5.8302   -1.9612    0.8216 C   0  0  0  0  0  0  0  0  0  0  0  0
   -5.6772   -3.0168   -0.0739 C   0  0  0  0  0  0  0  0  0  0  0  0
   -4.4231   -3.5678   -0.2819 C   0  0  0  0  0  0  0  0  0  0  0  0
   -6.8964   -3.3128   -0.6117 O   0  0  0  0  0  0  0  0  0  0  0  0
   -7.8617   -2.7019    0.2647 C   0  0  0  0  0  0  0  0  0  0  0  0
   -7.1452   -1.5958    0.8448 O   0  0  0  0  0  0  0  0  0  0  0  0
    1.1542    1.5236    1.7625 H   0  0  0  0  0  0  0  0  0  0  0  0
   -0.2797    1.8190    0.7501 H   0  0  0  0  0  0  0  0  0  0  0  0
   -0.4758    1.3563    2.4577 H   0  0  0  0  0  0  0  0  0  0  0  0
    0.0702    0.2432   -0.8847 H   0  0  0  0  0  0  0  0  0  0  0  0
    1.2435   -1.0101   -0.4035 H   0  0  0  0  0  0  0  0  0  0  0  0
    0.3813   -4.3905    2.6842 H   0  0  0  0  0  0  0  0  0  0  0  0
   -0.2525   -3.0544    3.6730 H   0  0  0  0  0  0  0  0  0  0  0  0
   -2.4870   -3.3435    2.6513 H   0  0  0  0  0  0  0  0  0  0  0  0
   -1.2711   -4.8638    5.3906 H   0  0  0  0  0  0  0  0  0  0  0  0
   -2.1261   -6.9914    6.3340 H   0  0  0  0  0  0  0  0  0  0  0  0
   -3.3850   -8.5580    4.9639 H   0  0  0  0  0  0  0  0  0  0  0  0
   -3.8531   -8.0912    2.5798 H   0  0  0  0  0  0  0  0  0  0  0  0
   -3.6237   -5.9124    0.6925 H   0  0  0  0  0  0  0  0  0  0  0  0
   -0.8627   -5.3783    0.9662 H   0  0  0  0  0  0  0  0  0  0  0  0
   -2.6235   -1.6467    1.8289 H   0  0  0  0  0  0  0  0  0  0  0  0
   -4.8442   -0.6526    2.1988 H   0  0  0  0  0  0  0  0  0  0  0  0
   -4.3008   -4.3834   -0.9790 H   0  0  0  0  0  0  0  0  0  0  0  0
   -8.7221   -2.3459   -0.3020 H   0  0  0  0  0  0  0  0  0  0  0  0
   -8.1748   -3.4033    1.0380 H   0  0  0  0  0  0  0  0  0  0  0  0
  1  2  1  0  0  0  0
  1 32  1  0  0  0  0
  1 33  1  0  0  0  0
  1 34  1  0  0  0  0
  2  9  1  0  0  0  0
  2  3  1  0  0  0  0
  3  4  1  0  0  0  0
  3 35  1  0  0  0  0
  3 36  1  0  0  0  0
  4  5  2  0  0  0  0
  4  6  1  0  0  0  0
  6 21  1  0  0  0  0
  6  7  1  0  0  0  0
  7  8  1  0  0  0  0
  7  9  1  0  0  0  0
  7 11  1  0  0  0  0
  9 10  2  0  0  0  0
 11 12  1  0  0  0  0
 11 37  1  0  0  0  0
 11 38  1  0  0  0  0
 12 20  1  0  0  0  0
 12 13  1  0  0  0  0
 12 39  1  0  0  0  0
 13 18  2  0  0  0  0
 13 14  1  0  0  0  0
 14 15  2  0  0  0  0
 14 40  1  0  0  0  0
 15 16  1  0  0  0  0
 15 41  1  0  0  0  0
 16 17  2  0  0  0  0
 16 42  1  0  0  0  0
 17 18  1  0  0  0  0
 17 43  1  0  0  0  0
 18 19  1  0  0  0  0
 19 20  1  0  0  0  0
 19 44  1  0  0  0  0
 20 21  1  0  0  0  0
 20 45  1  0  0  0  0
 21 22  1  0  0  0  0
 21 23  1  0  0  0  0
 23 28  2  0  0  0  0
 23 24  1  0  0  0  0
 24 25  2  0  0  0  0
 24 46  1  0  0  0  0
 25 26  1  0  0  0  0
 25 47  1  0  0  0  0
 26 31  1  0  0  0  0
 26 27  2  0  0  0  0
 27 28  1  0  0  0  0
 27 29  1  0  0  0  0
 28 48  1  0  0  0  0
 29 30  1  0  0  0  0
 30 31  1  0  0  0  0
 30 49  1  0  0  0  0
 30 50  1  0  0  0  0
M  END
$$$$
CHEMBL177542
  -OEChem-07121202283D

 50 55  0     1  0  0  0  0  0999 V2000
    0.4737    1.4148   -0.0967 C   0  0  0  0  0  0  0  0  0  0  0  0
    0.3682   -0.0462   -0.0749 N   0  0  0  0  0  0  0  0  0  0  0  0
    0.3469   -0.7528   -1.3449 C   0  0  0  0  0  0  0  0  0  0  0  0
    0.1376   -2.2211   -1.1722 C   0  0  0  0  0  0  0  0  0  0  0  0
    0.0711   -2.9042   -2.1721 O   0  0  0  0  0  0  0  0  0  0  0  0
    0.0188   -2.8348    0.0120 N   0  0  0  0  0  0  0  0  0  0  0  0
    0.1896   -2.1346    1.2777 C   0  0  1  0  0  0  0  0  0  0  0  0
    1.1317   -2.4681    1.7128 H   0  0  0  0  0  0  0  0  0  0  0  0
    0.3022   -0.6559    1.1084 C   0  0  0  0  0  0  0  0  0  0  0  0
    0.3303    0.0320    2.1069 O   0  0  0  0  0  0  0  0  0  0  0  0
   -0.9274   -2.4712    2.2812 C   0  0  0  0  0  0  0  0  0  0  0  0
   -1.0401   -3.9770    2.3248 C   0  0  1  0  0  0  0  0  0  0  0  0
   -2.0354   -4.6278    3.2043 C   0  0  0  0  0  0  0  0  0  0  0  0
   -2.4484   -4.3579    4.4935 C   0  0  0  0  0  0  0  0  0  0  0  0
   -3.4293   -5.1784    5.0359 C   0  0  0  0  0  0  0  0  0  0  0  0
   -3.9744   -6.2244    4.3194 C   0  0  0  0  0  0  0  0  0  0  0  0
   -3.5698   -6.5095    3.0243 C   0  0  0  0  0  0  0  0  0  0  0  0
   -2.5853   -5.6979    2.4682 C   0  0  0  0  0  0  0  0  0  0  0  0
   -1.9970   -5.7831    1.1981 N   0  0  0  0  0  0  0  0  0  0  0  0
   -1.4980   -4.4446    0.9141 C   0  0  2  0  0  0  0  0  0  0  0  0
   -0.2982   -4.2894    0.0013 C   0  0  1  0  0  0  0  0  0  0  0  0
    0.5455   -4.8625    0.3857 H   0  0  0  0  0  0  0  0  0  0  0  0
   -0.6434   -4.7381   -1.3953 C   0  0  0  0  0  0  0  0  0  0  0  0
    0.2245   -5.5599   -2.0901 C   0  0  0  0  0  0  0  0  0  0  0  0
   -0.0880   -5.9745   -3.3713 C   0  0  0  0  0  0  0  0  0  0  0  0
   -1.2728   -5.5666   -3.9625 C   0  0  0  0  0  0  0  0  0  0  0  0
   -2.1470   -4.7387   -3.2626 C   0  0  0  0  0  0  0  0  0  0  0  0
   -1.8300   -4.3318   -1.9768 C   0  0  0  0  0  0  0  0  0  0  0  0
   -3.2302   -4.4812   -4.0523 O   0  0  0  0  0  0  0  0  0  0  0  0
   -2.8213   -4.8241   -5.3896 C   0  0  0  0  0  0  0  0  0  0  0  0
   -1.8082   -5.8277   -5.1906 O   0  0  0  0  0  0  0  0  0  0  0  0
    1.5247    1.7034   -0.0829 H   0  0  0  0  0  0  0  0  0  0  0  0
    0.0030    1.7997   -1.0013 H   0  0  0  0  0  0  0  0  0  0  0  0
   -0.0281    1.8284    0.7781 H   0  0  0  0  0  0  0  0  0  0  0  0
   -0.4585   -0.3509   -1.9596 H   0  0  0  0  0  0  0  0  0  0  0  0
    1.2952   -0.5888   -1.8566 H   0  0  0  0  0  0  0  0  0  0  0  0
   -0.6684   -2.0887    3.2685 H   0  0  0  0  0  0  0  0  0  0  0  0
   -1.8701   -2.0369    1.9483 H   0  0  0  0  0  0  0  0  0  0  0  0
   -0.0597   -4.4027    2.5383 H   0  0  0  0  0  0  0  0  0  0  0  0
   -2.0251   -3.5406    5.0586 H   0  0  0  0  0  0  0  0  0  0  0  0
   -3.7734   -4.9936    6.0428 H   0  0  0  0  0  0  0  0  0  0  0  0
   -4.7361   -6.8365    4.7792 H   0  0  0  0  0  0  0  0  0  0  0  0
   -4.0011   -7.3294    2.4692 H   0  0  0  0  0  0  0  0  0  0  0  0
   -1.9350   -6.5668    0.6299 H   0  0  0  0  0  0  0  0  0  0  0  0
   -2.3142   -3.8133    0.5629 H   0  0  0  0  0  0  0  0  0  0  0  0
    1.1488   -5.8782   -1.6311 H   0  0  0  0  0  0  0  0  0  0  0  0
    0.5918   -6.6165   -3.9117 H   0  0  0  0  0  0  0  0  0  0  0  0
   -2.5082   -3.6934   -1.4300 H   0  0  0  0  0  0  0  0  0  0  0  0
   -3.6598   -5.2328   -5.9536 H   0  0  0  0  0  0  0  0  0  0  0  0
   -2.4044   -3.9544   -5.8975 H   0  0  0  0  0  0  0  0  0  0  0  0
  1  2  1  0  0  0  0
  1 32  1  0  0  0  0
  1 33  1  0  0  0  0
  1 34  1  0  0  0  0
  2  9  1  0  0  0  0
  2  3  1  0  0  0  0
  3  4  1  0  0  0  0
  3 35  1  0  0  0  0
  3 36  1  0  0  0  0
  4  5  2  0  0  0  0
  4  6  1  0  0  0  0
  6 21  1  0  0  0  0
  6  7  1  0  0  0  0
  7  8  1  0  0  0  0
  7  9  1  0  0  0  0
  7 11  1  0  0  0  0
  9 10  2  0  0  0  0
 11 12  1  0  0  0  0
 11 37  1  0  0  0  0
 11 38  1  0  0  0  0
 12 20  1  0  0  0  0
 12 13  1  0  0  0  0
 12 39  1  0  0  0  0
 13 18  2  0  0  0  0
 13 14  1  0  0  0  0
 14 15  2  0  0  0  0
 14 40  1  0  0  0  0
 15 16  1  0  0  0  0
 15 41  1  0  0  0  0
 16 17  2  0  0  0  0
 16 42  1  0  0  0  0
 17 18  1  0  0  0  0
 17 43  1  0  0  0  0
 18 19  1  0  0  0  0
 19 20  1  0  0  0  0
 19 44  1  0  0  0  0
 20 21  1  0  0  0  0
 20 45  1  0  0  0  0
 21 22  1  0  0  0  0
 21 23  1  0  0  0  0
 23 28  2  0  0  0  0
 23 24  1  0  0  0  0
 24 25  2  0  0  0  0
 24 46  1  0  0  0  0
 25 26  1  0  0  0  0
 25 47  1  0  0  0  0
 26 31  1  0  0  0  0
 26 27  2  0  0  0  0
 27 28  1  0  0  0  0
 27 29  1  0  0  0  0
 28 48  1  0  0  0  0
 29 30  1  0  0  0  0
 30 31  1  0  0  0  0
 30 49  1  0  0  0  0
 30 50  1  0  0  0  0
M  END
$$$$
CHEMBL177542
  -OEChem-07121202283D

 50 55  0     1  0  0  0  0  0999 V2000
   -0.0178    1.4608    0.0101 C   0  0  0  0  0  0  0  0  0  0  0  0
    0.0021   -0.0041    0.0020 N   0  0  0  0  0  0  0  0  0  0  0  0
    0.0068   -0.7701   -1.2578 C   0  0  0  0  0  0  0  0  0  0  0  0
   -1.0100   -1.8870   -1.1467 C   0  0  0  0  0  0  0  0  0  0  0  0
   -1.7647   -2.1529   -2.0581 O   0  0  0  0  0  0  0  0  0  0  0  0
   -1.0357   -2.5835    0.0346 N   0  0  0  0  0  0  0  0  0  0  0  0
   -0.0108   -2.2247    0.9955 C   0  0  1  0  0  0  0  0  0  0  0  0
    0.9349   -2.4762    0.5153 H   0  0  0  0  0  0  0  0  0  0  0  0
    0.0229   -0.7264    1.1615 C   0  0  0  0  0  0  0  0  0  0  0  0
    0.0626   -0.1974    2.2521 O   0  0  0  0  0  0  0  0  0  0  0  0
   -0.0104   -2.9646    2.2909 C   0  0  0  0  0  0  0  0  0  0  0  0
   -1.2340   -3.7412    2.6234 C   0  0  1  0  0  0  0  0  0  0  0  0
   -2.3144   -3.0218    3.3531 C   0  0  0  0  0  0  0  0  0  0  0  0
   -2.2638   -2.0114    4.2922 C   0  0  0  0  0  0  0  0  0  0  0  0
   -3.4755   -1.5291    4.7724 C   0  0  0  0  0  0  0  0  0  0  0  0
   -4.6799   -2.0378    4.3302 C   0  0  0  0  0  0  0  0  0  0  0  0
   -4.7431   -3.0582    3.3944 C   0  0  0  0  0  0  0  0  0  0  0  0
   -3.5339   -3.5587    2.9113 C   0  0  0  0  0  0  0  0  0  0  0  0
   -3.3194   -4.6082    2.0242 N   0  0  0  0  0  0  0  0  0  0  0  0
   -1.9454   -4.4349    1.4636 C   0  0  1  0  0  0  0  0  0  0  0  0
   -2.0854   -3.5499    0.2427 C   0  0  1  0  0  0  0  0  0  0  0  0
   -2.1561   -4.1728   -0.6490 H   0  0  0  0  0  0  0  0  0  0  0  0
   -3.3872   -2.8058    0.3925 C   0  0  0  0  0  0  0  0  0  0  0  0
   -3.4274   -1.6232    1.1075 C   0  0  0  0  0  0  0  0  0  0  0  0
   -4.6191   -0.9367    1.2473 C   0  0  0  0  0  0  0  0  0  0  0  0
   -5.7770   -1.4331    0.6708 C   0  0  0  0  0  0  0  0  0  0  0  0
   -5.7365   -2.6244   -0.0495 C   0  0  0  0  0  0  0  0  0  0  0  0
   -4.5375   -3.3041   -0.1903 C   0  0  0  0  0  0  0  0  0  0  0  0
   -6.9914   -2.8974   -0.5119 O   0  0  0  0  0  0  0  0  0  0  0  0
   -7.8774   -2.0787    0.2743 C   0  0  0  0  0  0  0  0  0  0  0  0
   -7.0572   -0.9598    0.6596 O   0  0  0  0  0  0  0  0  0  0  0  0
    1.0048    1.8381    0.0023 H   0  0  0  0  0  0  0  0  0  0  0  0
   -0.5450    1.8219   -0.8730 H   0  0  0  0  0  0  0  0  0  0  0  0
   -0.5280    1.8123    0.9069 H   0  0  0  0  0  0  0  0  0  0  0  0
   -0.2595   -0.1137   -2.0863 H   0  0  0  0  0  0  0  0  0  0  0  0
    0.9976   -1.1924   -1.4257 H   0  0  0  0  0  0  0  0  0  0  0  0
    0.8337   -3.6542    2.2838 H   0  0  0  0  0  0  0  0  0  0  0  0
    0.1569   -2.2426    3.0902 H   0  0  0  0  0  0  0  0  0  0  0  0
   -0.9180   -4.5375    3.2973 H   0  0  0  0  0  0  0  0  0  0  0  0
   -1.3221   -1.6126    4.6395 H   0  0  0  0  0  0  0  0  0  0  0  0
   -3.4747   -0.7387    5.5084 H   0  0  0  0  0  0  0  0  0  0  0  0
   -5.5987   -1.6291    4.7241 H   0  0  0  0  0  0  0  0  0  0  0  0
   -5.6899   -3.4504    3.0536 H   0  0  0  0  0  0  0  0  0  0  0  0
   -3.9441   -5.3186    1.8098 H   0  0  0  0  0  0  0  0  0  0  0  0
   -1.4809   -5.3890    1.2142 H   0  0  0  0  0  0  0  0  0  0  0  0
   -2.5259   -1.2351    1.5582 H   0  0  0  0  0  0  0  0  0  0  0  0
   -4.6476   -0.0131    1.8064 H   0  0  0  0  0  0  0  0  0  0  0  0
   -4.5022   -4.2258   -0.7520 H   0  0  0  0  0  0  0  0  0  0  0  0
   -8.7237   -1.7446   -0.3260 H   0  0  0  0  0  0  0  0  0  0  0  0
   -8.2215   -2.6224    1.1541 H   0  0  0  0  0  0  0  0  0  0  0  0
  1  2  1  0  0  0  0
  1 32  1  0  0  0  0
  1 33  1  0  0  0  0
  1 34  1  0  0  0  0
  2  9  1  0  0  0  0
  2  3  1  0  0  0  0
  3  4  1  0  0  0  0
  3 35  1  0  0  0  0
  3 36  1  0  0  0  0
  4  5  2  0  0  0  0
  4  6  1  0  0  0  0
  6 21  1  0  0  0  0
  6  7  1  0  0  0  0
  7  8  1  0  0  0  0
  7  9  1  0  0  0  0
  7 11  1  0  0  0  0
  9 10  2  0  0  0  0
 11 12  1  0  0  0  0
 11 37  1  0  0  0  0
 11 38  1  0  0  0  0
 12 20  1  0  0  0  0
 12 13  1  0  0  0  0
 12 39  1  0  0  0  0
 13 18  2  0  0  0  0
 13 14  1  0  0  0  0
 14 15  2  0  0  0  0
 14 40  1  0  0  0  0
 15 16  1  0  0  0  0
 15 41  1  0  0  0  0
 16 17  2  0  0  0  0
 16 42  1  0  0  0  0
 17 18  1  0  0  0  0
 17 43  1  0  0  0  0
 18 19  1  0  0  0  0
 19 20  1  0  0  0  0
 19 44  1  0  0  0  0
 20 21  1  0  0  0  0
 20 45  1  0  0  0  0
 21 22  1  0  0  0  0
 21 23  1  0  0  0  0
 23 28  2  0  0  0  0
 23 24  1  0  0  0  0
 24 25  2  0  0  0  0
 24 46  1  0  0  0  0
 25 26  1  0  0  0  0
 25 47  1  0  0  0  0
 26 31  1  0  0  0  0
 26 27  2  0  0  0  0
 27 28  1  0  0  0  0
 27 29  1  0  0  0  0
 28 48  1  0  0  0  0
 29 30  1  0  0  0  0
 30 31  1  0  0  0  0
 30 49  1  0  0  0  0
 30 50  1  0  0  0  0
M  END
$$$$
CHEMBL372955
  -OEChem-07121202283D

 62 66  0     1  0  0  0  0  0999 V2000
   -0.0431    2.6167   -1.4426 C   0  0  0  0  0  0  0  0  0  0  0  0
   -0.0859    1.1225   -1.1164 C   0  0  0  0  0  0  0  0  0  0  0  0
    0.6695    0.3432   -2.1948 C   0  0  0  0  0  0  0  0  0  0  0  0
    0.6268   -1.1510   -1.8686 C   0  0  2  0  0  0  0  0  0  0  0  0
    0.9991   -1.3318   -0.8602 H   0  0  0  0  0  0  0  0  0  0  0  0
    1.4450   -1.9518   -2.8977 C   0  0  0  0  0  0  0  0  0  0  0  0
    0.4413   -2.8387   -3.5139 N   0  0  0  0  0  0  0  0  0  0  0  0
    0.5875   -3.7854   -4.5054 C   0  0  0  0  0  0  0  0  0  0  0  0
   -0.5135   -4.5122   -4.9340 C   0  0  0  0  0  0  0  0  0  0  0  0
   -0.0883   -5.3600   -5.9027 N   0  0  0  0  0  0  0  0  0  0  0  0
    1.1894   -5.1918   -6.0840 C   0  0  0  0  0  0  0  0  0  0  0  0
    1.6469   -4.2243   -5.2371 N   0  0  0  0  0  0  0  0  0  0  0  0
    3.0276   -3.7456   -5.1347 C   0  0  0  0  0  0  0  0  0  0  0  0
    3.8194   -4.6798   -4.2564 C   0  0  0  0  0  0  0  0  0  0  0  0
    3.7676   -4.5460   -2.8815 C   0  0  0  0  0  0  0  0  0  0  0  0
    4.4938   -5.4029   -2.0758 C   0  0  0  0  0  0  0  0  0  0  0  0
    5.2714   -6.3940   -2.6450 C   0  0  0  0  0  0  0  0  0  0  0  0
    5.3225   -6.5284   -4.0199 C   0  0  0  0  0  0  0  0  0  0  0  0
    4.5929   -5.6741   -4.8254 C   0  0  0  0  0  0  0  0  0  0  0  0
    2.0339   -5.9491   -7.0762 C   0  0  0  0  0  0  0  0  0  0  0  0
    2.0460   -5.2127   -8.3909 C   0  0  0  0  0  0  0  0  0  0  0  0
    1.0830   -5.4850   -9.3446 C   0  0  0  0  0  0  0  0  0  0  0  0
    1.0941   -4.8096  -10.5506 C   0  0  0  0  0  0  0  0  0  0  0  0
    2.0680   -3.8615  -10.8028 C   0  0  0  0  0  0  0  0  0  0  0  0
    3.0304   -3.5885   -9.8489 C   0  0  0  0  0  0  0  0  0  0  0  0
    3.0168   -4.2609   -8.6411 C   0  0  0  0  0  0  0  0  0  0  0  0
   -1.8105   -4.2463   -4.3116 C   0  0  0  0  0  0  0  0  0  0  0  0
   -2.8002   -4.8636   -4.6600 O   0  0  0  0  0  0  0  0  0  0  0  0
   -1.8946   -3.3105   -3.3486 N   0  0  0  0  0  0  0  0  0  0  0  0
   -0.7787   -2.5972   -2.9367 C   0  0  0  0  0  0  0  0  0  0  0  0
   -0.7360   -1.6698   -2.0137 N   0  3  0  0  0  0  0  0  0  0  0  0
   -3.1908   -3.0400   -2.7219 C   0  0  0  0  0  0  0  0  0  0  0  0
   -3.3684   -3.9496   -1.5045 C   0  0  0  0  0  0  0  0  0  0  0  0
    0.9935    2.9521   -1.4743 H   0  0  0  0  0  0  0  0  0  0  0  0
   -0.5111    2.7906   -2.4115 H   0  0  0  0  0  0  0  0  0  0  0  0
   -0.5813    3.1718   -0.6743 H   0  0  0  0  0  0  0  0  0  0  0  0
    0.3821    0.9485   -0.1474 H   0  0  0  0  0  0  0  0  0  0  0  0
   -1.1225    0.7870   -1.0846 H   0  0  0  0  0  0  0  0  0  0  0  0
    0.2016    0.5171   -3.1637 H   0  0  0  0  0  0  0  0  0  0  0  0
    1.7062    0.6786   -2.2265 H   0  0  0  0  0  0  0  0  0  0  0  0
    1.8802   -1.2870   -3.6438 H   0  0  0  0  0  0  0  0  0  0  0  0
    2.2208   -2.5352   -2.4019 H   0  0  0  0  0  0  0  0  0  0  0  0
    3.4757   -3.7135   -6.1278 H   0  0  0  0  0  0  0  0  0  0  0  0
    3.0343   -2.7457   -4.7006 H   0  0  0  0  0  0  0  0  0  0  0  0
    3.1600   -3.7717   -2.4368 H   0  0  0  0  0  0  0  0  0  0  0  0
    4.4539   -5.2980   -1.0017 H   0  0  0  0  0  0  0  0  0  0  0  0
    5.8394   -7.0631   -2.0156 H   0  0  0  0  0  0  0  0  0  0  0  0
    5.9303   -7.3024   -4.4646 H   0  0  0  0  0  0  0  0  0  0  0  0
    4.6299   -5.7815   -5.8994 H   0  0  0  0  0  0  0  0  0  0  0  0
    3.0524   -6.0328   -6.6972 H   0  0  0  0  0  0  0  0  0  0  0  0
    1.6174   -6.9458   -7.2218 H   0  0  0  0  0  0  0  0  0  0  0  0
    0.3222   -6.2258   -9.1475 H   0  0  0  0  0  0  0  0  0  0  0  0
    0.3422   -5.0228  -11.2959 H   0  0  0  0  0  0  0  0  0  0  0  0
    2.0771   -3.3343  -11.7454 H   0  0  0  0  0  0  0  0  0  0  0  0
    3.7915   -2.8480  -10.0461 H   0  0  0  0  0  0  0  0  0  0  0  0
    3.7665   -4.0450   -7.8943 H   0  0  0  0  0  0  0  0  0  0  0  0
   -3.2311   -1.9977   -2.4056 H   0  0  0  0  0  0  0  0  0  0  0  0
   -3.9886   -3.2331   -3.4391 H   0  0  0  0  0  0  0  0  0  0  0  0
   -2.5707   -3.7565   -0.7872 H   0  0  0  0  0  0  0  0  0  0  0  0
   -4.3329   -3.7483   -1.0382 H   0  0  0  0  0  0  0  0  0  0  0  0
   -3.3282   -4.9919   -1.8207 H   0  0  0  0  0  0  0  0  0  0  0  0
   -1.4992   -1.3668   -1.4973 H   0  0  0  0  0  0  0  0  0  0  0  0
  1  2  1  0  0  0  0
  1 34  1  0  0  0  0
  1 35  1  0  0  0  0
  1 36  1  0  0  0  0
  2  3  1  0  0  0  0
  2 37  1  0  0  0  0
  2 38  1  0  0  0  0
  3  4  1  0  0  0  0
  3 39  1  0  0  0  0
  3 40  1  0  0  0  0
  4  5  1  0  0  0  0
  4 31  1  0  0  0  0
  4  6  1  0  0  0  0
  6  7  1  0  0  0  0
  6 41  1  0  0  0  0
  6 42  1  0  0  0  0
  7 30  1  0  0  0  0
  7  8  1  0  0  0  0
  8 12  1  0  0  0  0
  8  9  2  0  0  0  0
  9 10  1  0  0  0  0
  9 27  1  0  0  0  0
 10 11  2  0  0  0  0
 11 12  1  0  0  0  0
 11 20  1  0  0  0  0
 12 13  1  0  0  0  0
 13 14  1  0  0  0  0
 13 43  1  0  0  0  0
 13 44  1  0  0  0  0
 14 19  2  0  0  0  0
 14 15  1  0  0  0  0
 15 16  2  0  0  0  0
 15 45  1  0  0  0  0
 16 17  1  0  0  0  0
 16 46  1  0  0  0  0
 17 18  2  0  0  0  0
 17 47  1  0  0  0  0
 18 19  1  0  0  0  0
 18 48  1  0  0  0  0
 19 49  1  0  0  0  0
 20 21  1  0  0  0  0
 20 50  1  0  0  0  0
 20 51  1  0  0  0  0
 21 26  2  0  0  0  0
 21 22  1  0  0  0  0
 22 23  2  0  0  0  0
 22 52  1  0  0  0  0
 23 24  1  0  0  0  0
 23 53  1  0  0  0  0
 24 25  2  0  0  0  0
 24 54  1  0  0  0  0
 25 26  1  0  0  0  0
 25 55  1  0  0  0  0
 26 56  1  0  0  0  0
 27 28  2  0  0  0  0
 27 29  1  0  0  0  0
 29 30  1  0  0  0  0
 29 32  1  0  0  0  0
 30 31  2  0  0  0  0
 31 62  1  0  0  0  0
 32 33  1  0  0  0  0
 32 57  1  0  0  0  0
 32 58  1  0  0  0  0
 33 59  1  0  0  0  0
 33 60  1  0  0  0  0
 33 61  1  0  0  0  0
M  CHG  1  31   1
M  END
$$$$
CHEMBL360508
  -OEChem-07121202283D

 38 41  0     0  0  0  0  0  0999 V2000
   -0.0187    1.5258    0.0104 C   0  0  0  0  0  0  0  0  0  0  0  0
    0.0021   -0.0041    0.0020 C   0  0  0  0  0  0  0  0  0  0  0  0
   -1.3386   -0.4987    0.0122 O   0  0  0  0  0  0  0  0  0  0  0  0
   -1.4981   -1.8465    0.0064 C   0  0  0  0  0  0  0  0  0  0  0  0
   -0.3894   -2.6787   -0.0028 C   0  0  0  0  0  0  0  0  0  0  0  0
   -0.5532   -4.0502   -0.0086 C   0  0  0  0  0  0  0  0  0  0  0  0
   -1.8226   -4.6042   -0.0052 C   0  0  0  0  0  0  0  0  0  0  0  0
   -2.9358   -3.7914    0.0044 C   0  0  0  0  0  0  0  0  0  0  0  0
   -2.7842   -2.4029    0.0157 C   0  0  0  0  0  0  0  0  0  0  0  0
   -3.9715   -1.5270    0.0318 C   0  0  0  0  0  0  0  0  0  0  0  0
   -3.8031   -0.2232    0.0373 N   0  0  0  0  0  0  0  0  0  0  0  0
   -4.8487    0.6096    0.0518 C   0  0  0  0  0  0  0  0  0  0  0  0
   -6.1493    0.0914    0.0614 C   0  0  0  0  0  0  0  0  0  0  0  0
   -6.3193   -1.3151    0.0558 C   0  0  0  0  0  0  0  0  0  0  0  0
   -5.2151   -2.0943    0.0351 N   0  0  0  0  0  0  0  0  0  0  0  0
   -7.4333   -1.8100    0.0642 O   0  0  0  0  0  0  0  0  0  0  0  0
   -7.0008    1.1435    0.0752 N   0  0  0  0  0  0  0  0  0  0  0  0
   -6.3176    2.2516    0.0747 C   0  0  0  0  0  0  0  0  0  0  0  0
   -4.9833    1.9721    0.0604 N   0  0  0  0  0  0  0  0  0  0  0  0
   -3.8930    2.9506    0.0557 C   0  0  0  0  0  0  0  0  0  0  0  0
   -4.2615    4.4199    0.2706 C   0  0  0  0  0  0  0  0  0  0  0  0
   -3.8312    3.9338   -1.1149 C   0  0  0  0  0  0  0  0  0  0  0  0
    1.0039    1.9031    0.0027 H   0  0  0  0  0  0  0  0  0  0  0  0
   -0.5459    1.8868   -0.8726 H   0  0  0  0  0  0  0  0  0  0  0  0
   -0.5289    1.8773    0.9072 H   0  0  0  0  0  0  0  0  0  0  0  0
    0.5123   -0.3556   -0.8948 H   0  0  0  0  0  0  0  0  0  0  0  0
    0.5293   -0.3651    0.8851 H   0  0  0  0  0  0  0  0  0  0  0  0
    0.6036   -2.2542   -0.0059 H   0  0  0  0  0  0  0  0  0  0  0  0
    0.3137   -4.6944   -0.0162 H   0  0  0  0  0  0  0  0  0  0  0  0
   -1.9408   -5.6777   -0.0105 H   0  0  0  0  0  0  0  0  0  0  0  0
   -3.9238   -4.2275    0.0067 H   0  0  0  0  0  0  0  0  0  0  0  0
   -5.3055   -3.0601    0.0265 H   0  0  0  0  0  0  0  0  0  0  0  0
   -6.7440    3.2438    0.0838 H   0  0  0  0  0  0  0  0  0  0  0  0
   -2.9472    2.6026    0.4712 H   0  0  0  0  0  0  0  0  0  0  0  0
   -5.3151    4.6586    0.4154 H   0  0  0  0  0  0  0  0  0  0  0  0
   -3.5582    5.0389    0.8276 H   0  0  0  0  0  0  0  0  0  0  0  0
   -2.8448    4.2330   -1.4693 H   0  0  0  0  0  0  0  0  0  0  0  0
   -4.6018    3.8527   -1.8815 H   0  0  0  0  0  0  0  0  0  0  0  0
  1  2  1  0  0  0  0
  1 23  1  0  0  0  0
  1 24  1  0  0  0  0
  1 25  1  0  0  0  0
  2  3  1  0  0  0  0
  2 26  1  0  0  0  0
  2 27  1  0  0  0  0
  3  4  1  0  0  0  0
  4  9  2  0  0  0  0
  4  5  1  0  0  0  0
  5  6  2  0  0  0  0
  5 28  1  0  0  0  0
  6  7  1  0  0  0  0
  6 29  1  0  0  0  0
  7  8  2  0  0  0  0
  7 30  1  0  0  0  0
  8  9  1  0  0  0  0
  8 31  1  0  0  0  0
  9 10  1  0  0  0  0
 10 11  2  0  0  0  0
 10 15  1  0  0  0  0
 11 12  1  0  0  0  0
 12 19  1  0  0  0  0
 12 13  2  0  0  0  0
 13 14  1  0  0  0  0
 13 17  1  0  0  0  0
 14 15  1  0  0  0  0
 14 16  2  0  0  0  0
 15 32  1  0  0  0  0
 17 18  2  0  0  0  0
 18 33  1  0  0  0  0
 18 19  1  0  0  0  0
 19 20  1  0  0  0  0
 20 22  1  0  0  0  0
 20 21  1  0  0  0  0
 20 34  1  0  0  0  0
 21 22  1  0  0  0  0
 21 35  1  0  0  0  0
 21 36  1  0  0  0  0
 22 37  1  0  0  0  0
 22 38  1  0  0  0  0
M  END
$$$$
CHEMBL370118
  -OEChem-07121202283D

 67 72  0     1  0  0  0  0  0999 V2000
   -0.4531    0.8948    0.1444 C   0  0  0  0  0  0  0  0  0  0  0  0
   -0.4554   -0.6211   -0.0625 C   0  0  0  0  0  0  0  0  0  0  0  0
    0.2304   -0.9439   -1.3162 N   0  0  0  0  0  0  0  0  0  0  0  0
   -0.4778   -1.0033   -2.4586 C   0  0  0  0  0  0  0  0  0  0  0  0
   -1.6766   -0.7913   -2.4531 O   0  0  0  0  0  0  0  0  0  0  0  0
    0.2126   -1.3257   -3.7075 C   0  0  0  0  0  0  0  0  0  0  0  0
    1.5793   -1.5594   -3.6672 C   0  0  0  0  0  0  0  0  0  0  0  0
    1.9606   -1.8315   -4.9442 N   0  0  0  0  0  0  0  0  0  0  0  0
    0.8470   -1.7620   -5.7301 C   0  0  0  0  0  0  0  0  0  0  0  0
   -0.1853   -1.4628   -4.9963 N   0  0  0  0  0  0  0  0  0  0  0  0
    0.8172   -1.9959   -7.2186 C   0  0  0  0  0  0  0  0  0  0  0  0
    0.4199   -3.4230   -7.4950 C   0  0  0  0  0  0  0  0  0  0  0  0
    1.3796   -4.4179   -7.5061 C   0  0  0  0  0  0  0  0  0  0  0  0
    1.0152   -5.7270   -7.7596 C   0  0  0  0  0  0  0  0  0  0  0  0
   -0.3090   -6.0413   -8.0017 C   0  0  0  0  0  0  0  0  0  0  0  0
   -1.2689   -5.0466   -7.9897 C   0  0  0  0  0  0  0  0  0  0  0  0
   -0.9050   -3.7382   -7.7319 C   0  0  0  0  0  0  0  0  0  0  0  0
    3.3196   -2.1426   -5.3942 C   0  0  0  0  0  0  0  0  0  0  0  0
    3.9647   -0.8961   -5.9430 C   0  0  0  0  0  0  0  0  0  0  0  0
    3.9584   -0.6581   -7.3050 C   0  0  0  0  0  0  0  0  0  0  0  0
    4.5495    0.4836   -7.8106 C   0  0  0  0  0  0  0  0  0  0  0  0
    5.1494    1.3918   -6.9505 C   0  0  0  0  0  0  0  0  0  0  0  0
    5.1541    1.1509   -5.5843 C   0  0  0  0  0  0  0  0  0  0  0  0
    4.5571    0.0103   -5.0832 C   0  0  0  0  0  0  0  0  0  0  0  0
    5.7320    2.5154   -7.4455 O   0  0  0  0  0  0  0  0  0  0  0  0
    2.2530   -1.4849   -2.4667 N   0  0  0  0  0  0  0  0  0  0  0  0
    1.5976   -1.1765   -1.3025 C   0  0  0  0  0  0  0  0  0  0  0  0
    2.3881   -1.1433   -0.2632 N   0  3  0  0  0  0  0  0  0  0  0  0
    3.7685   -1.4442   -0.6521 C   0  0  1  0  0  0  0  0  0  0  0  0
    4.1207   -2.3433   -0.1464 H   0  0  0  0  0  0  0  0  0  0  0  0
    3.6827   -1.6889   -2.1697 C   0  0  0  0  0  0  0  0  0  0  0  0
    4.6847   -0.2599   -0.3379 C   0  0  0  0  0  0  0  0  0  0  0  0
    4.7689   -0.0723    1.1551 C   0  0  0  0  0  0  0  0  0  0  0  0
    3.8628    0.7480    1.8008 C   0  0  0  0  0  0  0  0  0  0  0  0
    3.9401    0.9201    3.1702 C   0  0  0  0  0  0  0  0  0  0  0  0
    4.9232    0.2716    3.8939 C   0  0  0  0  0  0  0  0  0  0  0  0
    5.8287   -0.5494    3.2483 C   0  0  0  0  0  0  0  0  0  0  0  0
    5.7488   -0.7249    1.8795 C   0  0  0  0  0  0  0  0  0  0  0  0
    0.5752    1.2537    0.1899 H   0  0  0  0  0  0  0  0  0  0  0  0
   -0.9693    1.3758   -0.6864 H   0  0  0  0  0  0  0  0  0  0  0  0
   -0.9633    1.1350    1.0772 H   0  0  0  0  0  0  0  0  0  0  0  0
    0.0608   -1.1020    0.7683 H   0  0  0  0  0  0  0  0  0  0  0  0
   -1.4836   -0.9800   -0.1080 H   0  0  0  0  0  0  0  0  0  0  0  0
    0.0941   -1.3219   -7.6778 H   0  0  0  0  0  0  0  0  0  0  0  0
    1.8062   -1.8067   -7.6359 H   0  0  0  0  0  0  0  0  0  0  0  0
    2.4142   -4.1723   -7.3170 H   0  0  0  0  0  0  0  0  0  0  0  0
    1.7651   -6.5042   -7.7690 H   0  0  0  0  0  0  0  0  0  0  0  0
   -0.5936   -7.0640   -8.2005 H   0  0  0  0  0  0  0  0  0  0  0  0
   -2.3034   -5.2921   -8.1791 H   0  0  0  0  0  0  0  0  0  0  0  0
   -1.6555   -2.9616   -7.7188 H   0  0  0  0  0  0  0  0  0  0  0  0
    3.9047   -2.5143   -4.5530 H   0  0  0  0  0  0  0  0  0  0  0  0
    3.2791   -2.9039   -6.1732 H   0  0  0  0  0  0  0  0  0  0  0  0
    3.4912   -1.3654   -7.9742 H   0  0  0  0  0  0  0  0  0  0  0  0
    4.5448    0.6687   -8.8746 H   0  0  0  0  0  0  0  0  0  0  0  0
    5.6205    1.8564   -4.9126 H   0  0  0  0  0  0  0  0  0  0  0  0
    4.5566   -0.1756   -4.0193 H   0  0  0  0  0  0  0  0  0  0  0  0
    5.1340    3.2726   -7.5102 H   0  0  0  0  0  0  0  0  0  0  0  0
    3.9866   -2.7047   -2.4224 H   0  0  0  0  0  0  0  0  0  0  0  0
    4.2937   -0.9601   -2.7023 H   0  0  0  0  0  0  0  0  0  0  0  0
    5.6803   -0.4550   -0.7363 H   0  0  0  0  0  0  0  0  0  0  0  0
    4.2808    0.6433   -0.7953 H   0  0  0  0  0  0  0  0  0  0  0  0
    3.0947    1.2547    1.2354 H   0  0  0  0  0  0  0  0  0  0  0  0
    3.2326    1.5615    3.6746 H   0  0  0  0  0  0  0  0  0  0  0  0
    4.9840    0.4066    4.9637 H   0  0  0  0  0  0  0  0  0  0  0  0
    6.5970   -1.0559    3.8137 H   0  0  0  0  0  0  0  0  0  0  0  0
    6.4540   -1.3692    1.3756 H   0  0  0  0  0  0  0  0  0  0  0  0
    2.1009   -0.9459    0.6420 H   0  0  0  0  0  0  0  0  0  0  0  0
  1  2  1  0  0  0  0
  1 39  1  0  0  0  0
  1 40  1  0  0  0  0
  1 41  1  0  0  0  0
  2  3  1  0  0  0  0
  2 42  1  0  0  0  0
  2 43  1  0  0  0  0
  3 27  1  0  0  0  0
  3  4  1  0  0  0  0
  4  5  2  0  0  0  0
  4  6  1  0  0  0  0
  6 10  1  0  0  0  0
  6  7  2  0  0  0  0
  7  8  1  0  0  0  0
  7 26  1  0  0  0  0
  8  9  1  0  0  0  0
  8 18  1  0  0  0  0
  9 10  2  0  0  0  0
  9 11  1  0  0  0  0
 11 12  1  0  0  0  0
 11 44  1  0  0  0  0
 11 45  1  0  0  0  0
 12 17  2  0  0  0  0
 12 13  1  0  0  0  0
 13 14  2  0  0  0  0
 13 46  1  0  0  0  0
 14 15  1  0  0  0  0
 14 47  1  0  0  0  0
 15 16  2  0  0  0  0
 15 48  1  0  0  0  0
 16 17  1  0  0  0  0
 16 49  1  0  0  0  0
 17 50  1  0  0  0  0
 18 19  1  0  0  0  0
 18 51  1  0  0  0  0
 18 52  1  0  0  0  0
 19 24  2  0  0  0  0
 19 20  1  0  0  0  0
 20 21  2  0  0  0  0
 20 53  1  0  0  0  0
 21 22  1  0  0  0  0
 21 54  1  0  0  0  0
 22 23  2  0  0  0  0
 22 25  1  0  0  0  0
 23 24  1  0  0  0  0
 23 55  1  0  0  0  0
 24 56  1  0  0  0  0
 25 57  1  0  0  0  0
 26 31  1  0  0  0  0
 26 27  1  0  0  0  0
 27 28  2  0  0  0  0
 28 29  1  0  0  0  0
 28 67  1  0  0  0  0
 29 30  1  0  0  0  0
 29 31  1  0  0  0  0
 29 32  1  0  0  0  0
 31 58  1  0  0  0  0
 31 59  1  0  0  0  0
 32 33  1  0  0  0  0
 32 60  1  0  0  0  0
 32 61  1  0  0  0  0
 33 38  2  0  0  0  0
 33 34  1  0  0  0  0
 34 35  2  0  0  0  0
 34 62  1  0  0  0  0
 35 36  1  0  0  0  0
 35 63  1  0  0  0  0
 36 37  2  0  0  0  0
 36 64  1  0  0  0  0
 37 38  1  0  0  0  0
 37 65  1  0  0  0  0
 38 66  1  0  0  0  0
M  CHG  1  28   1
M  END
$$$$
CHEMBL26229
  -OEChem-07121202283D

 69 74  0     1  0  0  0  0  0999 V2000
   -0.0187    1.5258    0.0104 C   0  0  0  0  0  0  0  0  0  0  0  0
    0.0021   -0.0041    0.0020 C   0  0  0  0  0  0  0  0  0  0  0  0
    0.7106   -0.4894    1.1889 N   0  0  0  0  0  0  0  0  0  0  0  0
    2.0395   -0.6857    1.1297 C   0  0  0  0  0  0  0  0  0  0  0  0
    2.6437   -0.4604    0.0958 O   0  0  0  0  0  0  0  0  0  0  0  0
    2.7315   -1.1509    2.2621 C   0  0  0  0  0  0  0  0  0  0  0  0
    2.0307   -1.4031    3.4337 C   0  0  0  0  0  0  0  0  0  0  0  0
    2.9118   -1.8290    4.3426 N   0  3  0  0  0  0  0  0  0  0  0  0
    4.1171   -1.8600    3.8172 C   0  0  0  0  0  0  0  0  0  0  0  0
    4.0605   -1.4495    2.5306 N   0  0  0  0  0  0  0  0  0  0  0  0
    5.1853   -1.3412    1.5983 C   0  0  0  0  0  0  0  0  0  0  0  0
    5.7879    0.0366    1.6959 C   0  0  0  0  0  0  0  0  0  0  0  0
    5.3145    1.0556    0.8900 C   0  0  0  0  0  0  0  0  0  0  0  0
    5.8652    2.3197    0.9769 C   0  0  0  0  0  0  0  0  0  0  0  0
    6.8939    2.5669    1.8739 C   0  0  0  0  0  0  0  0  0  0  0  0
    7.3675    1.5427    2.6824 C   0  0  0  0  0  0  0  0  0  0  0  0
    6.8092    0.2808    2.5951 C   0  0  0  0  0  0  0  0  0  0  0  0
    8.6547    1.8476    3.8066 Cl  0  0  0  0  0  0  0  0  0  0  0  0
    7.4375    3.8096    1.9608 O   0  0  0  0  0  0  0  0  0  0  0  0
    5.2401   -2.2431    4.4646 O   0  0  0  0  0  0  0  0  0  0  0  0
    5.0976   -2.6455    5.8283 C   0  0  0  0  0  0  0  0  0  0  0  0
    6.4445   -3.0350    6.3806 C   0  0  0  0  0  0  0  0  0  0  0  0
    6.8826   -4.3420    6.2765 C   0  0  0  0  0  0  0  0  0  0  0  0
    8.1181   -4.6993    6.7830 C   0  0  0  0  0  0  0  0  0  0  0  0
    8.9159   -3.7495    7.3933 C   0  0  0  0  0  0  0  0  0  0  0  0
    8.4782   -2.4424    7.4967 C   0  0  0  0  0  0  0  0  0  0  0  0
    7.2445   -2.0842    6.9863 C   0  0  0  0  0  0  0  0  0  0  0  0
    0.6605   -1.1912    3.4647 N   0  0  0  0  0  0  0  0  0  0  0  0
   -0.0006   -0.7323    2.3541 C   0  0  0  0  0  0  0  0  0  0  0  0
   -1.2823   -0.5804    2.5479 N   0  3  0  0  0  0  0  0  0  0  0  0
   -1.6451   -0.9456    3.9204 C   0  0  1  0  0  0  0  0  0  0  0  0
   -2.3471   -1.7794    3.9211 H   0  0  0  0  0  0  0  0  0  0  0  0
   -0.3102   -1.3754    4.5568 C   0  0  0  0  0  0  0  0  0  0  0  0
   -2.2413    0.2565    4.6555 C   0  0  0  0  0  0  0  0  0  0  0  0
   -3.5595    0.6270    4.0259 C   0  0  0  0  0  0  0  0  0  0  0  0
   -3.5967    1.5330    2.9825 C   0  0  0  0  0  0  0  0  0  0  0  0
   -4.8058    1.8728    2.4051 C   0  0  0  0  0  0  0  0  0  0  0  0
   -5.9777    1.3064    2.8707 C   0  0  0  0  0  0  0  0  0  0  0  0
   -5.9403    0.3997    3.9136 C   0  0  0  0  0  0  0  0  0  0  0  0
   -4.7308    0.0566    4.4882 C   0  0  0  0  0  0  0  0  0  0  0  0
    1.0039    1.9031    0.0027 H   0  0  0  0  0  0  0  0  0  0  0  0
   -0.5459    1.8868   -0.8726 H   0  0  0  0  0  0  0  0  0  0  0  0
   -0.5289    1.8773    0.9072 H   0  0  0  0  0  0  0  0  0  0  0  0
   -1.0205   -0.3814    0.0098 H   0  0  0  0  0  0  0  0  0  0  0  0
    0.5123   -0.3556   -0.8948 H   0  0  0  0  0  0  0  0  0  0  0  0
    5.9396   -2.0864    1.8509 H   0  0  0  0  0  0  0  0  0  0  0  0
    4.8321   -1.5120    0.5813 H   0  0  0  0  0  0  0  0  0  0  0  0
    4.5135    0.8631    0.1916 H   0  0  0  0  0  0  0  0  0  0  0  0
    5.4952    3.1147    0.3465 H   0  0  0  0  0  0  0  0  0  0  0  0
    7.1743   -0.5157    3.2266 H   0  0  0  0  0  0  0  0  0  0  0  0
    7.0029    4.3849    2.6053 H   0  0  0  0  0  0  0  0  0  0  0  0
    4.6915   -1.8185    6.4107 H   0  0  0  0  0  0  0  0  0  0  0  0
    4.4206   -3.4979    5.8867 H   0  0  0  0  0  0  0  0  0  0  0  0
    6.2593   -5.0840    5.7996 H   0  0  0  0  0  0  0  0  0  0  0  0
    8.4601   -5.7206    6.7023 H   0  0  0  0  0  0  0  0  0  0  0  0
    9.8809   -4.0288    7.7897 H   0  0  0  0  0  0  0  0  0  0  0  0
    9.1013   -1.7004    7.9738 H   0  0  0  0  0  0  0  0  0  0  0  0
    6.9041   -1.0621    7.0637 H   0  0  0  0  0  0  0  0  0  0  0  0
   -0.3423   -2.4187    4.8707 H   0  0  0  0  0  0  0  0  0  0  0  0
   -0.0692   -0.7266    5.3989 H   0  0  0  0  0  0  0  0  0  0  0  0
   -2.3984    0.0004    5.7033 H   0  0  0  0  0  0  0  0  0  0  0  0
   -1.5557    1.1011    4.5867 H   0  0  0  0  0  0  0  0  0  0  0  0
   -2.6812    1.9755    2.6187 H   0  0  0  0  0  0  0  0  0  0  0  0
   -4.8350    2.5812    1.5903 H   0  0  0  0  0  0  0  0  0  0  0  0
   -6.9224    1.5724    2.4200 H   0  0  0  0  0  0  0  0  0  0  0  0
   -6.8559   -0.0426    4.2776 H   0  0  0  0  0  0  0  0  0  0  0  0
   -4.7012   -0.6545    5.3004 H   0  0  0  0  0  0  0  0  0  0  0  0
   -1.9087   -0.2688    1.8761 H   0  0  0  0  0  0  0  0  0  0  0  0
    2.6950   -2.0782    5.2546 H   0  0  0  0  0  0  0  0  0  0  0  0
  1  2  1  0  0  0  0
  1 41  1  0  0  0  0
  1 42  1  0  0  0  0
  1 43  1  0  0  0  0
  2  3  1  0  0  0  0
  2 44  1  0  0  0  0
  2 45  1  0  0  0  0
  3 29  1  0  0  0  0
  3  4  1  0  0  0  0
  4  5  2  0  0  0  0
  4  6  1  0  0  0  0
  6 10  1  0  0  0  0
  6  7  2  0  0  0  0
  7  8  1  0  0  0  0
  7 28  1  0  0  0  0
  8  9  2  0  0  0  0
  8 69  1  0  0  0  0
  9 10  1  0  0  0  0
  9 20  1  0  0  0  0
 10 11  1  0  0  0  0
 11 12  1  0  0  0  0
 11 46  1  0  0  0  0
 11 47  1  0  0  0  0
 12 17  2  0  0  0  0
 12 13  1  0  0  0  0
 13 14  2  0  0  0  0
 13 48  1  0  0  0  0
 14 15  1  0  0  0  0
 14 49  1  0  0  0  0
 15 16  2  0  0  0  0
 15 19  1  0  0  0  0
 16 17  1  0  0  0  0
 16 18  1  0  0  0  0
 17 50  1  0  0  0  0
 19 51  1  0  0  0  0
 20 21  1  0  0  0  0
 21 22  1  0  0  0  0
 21 52  1  0  0  0  0
 21 53  1  0  0  0  0
 22 27  2  0  0  0  0
 22 23  1  0  0  0  0
 23 24  2  0  0  0  0
 23 54  1  0  0  0  0
 24 25  1  0  0  0  0
 24 55  1  0  0  0  0
 25 26  2  0  0  0  0
 25 56  1  0  0  0  0
 26 27  1  0  0  0  0
 26 57  1  0  0  0  0
 27 58  1  0  0  0  0
 28 33  1  0  0  0  0
 28 29  1  0  0  0  0
 29 30  2  0  0  0  0
 30 31  1  0  0  0  0
 30 68  1  0  0  0  0
 31 32  1  0  0  0  0
 31 33  1  0  0  0  0
 31 34  1  0  0  0  0
 33 59  1  0  0  0  0
 33 60  1  0  0  0  0
 34 35  1  0  0  0  0
 34 61  1  0  0  0  0
 34 62  1  0  0  0  0
 35 40  2  0  0  0  0
 35 36  1  0  0  0  0
 36 37  2  0  0  0  0
 36 63  1  0  0  0  0
 37 38  1  0  0  0  0
 37 64  1  0  0  0  0
 38 39  2  0  0  0  0
 38 65  1  0  0  0  0
 39 40  1  0  0  0  0
 39 66  1  0  0  0  0
 40 67  1  0  0  0  0
M  CHG  2   8   1  30   1
M  END
$$$$
CHEMBL190948
  -OEChem-07121202283D

 48 51  0     1  0  0  0  0  0999 V2000
   -0.0171    1.3783    0.0108 C   0  0  0  0  0  0  0  0  0  0  0  0
    0.4280    0.7880   -1.1584 C   0  0  0  0  0  0  0  0  0  0  0  0
    1.6332    0.1161   -1.1798 C   0  0  0  0  0  0  0  0  0  0  0  0
    2.4023    0.0328   -0.0206 C   0  0  0  0  0  0  0  0  0  0  0  0
    1.9490    0.6294    1.1545 C   0  0  0  0  0  0  0  0  0  0  0  0
    0.7421    1.2988    1.1644 C   0  0  0  0  0  0  0  0  0  0  0  0
    3.6072   -0.6377   -0.0361 N   0  3  0  0  0  0  0  0  0  0  0  0
    4.5036   -0.3023   -0.9041 C   0  0  0  0  0  0  0  0  0  0  0  0
    5.8235   -1.0196   -0.9927 C   0  0  0  0  0  0  0  0  0  0  0  0
    6.2790   -1.4482    0.4039 C   0  0  2  0  0  0  0  0  0  0  0  0
    5.1210   -2.0933    1.1230 C   0  0  0  0  0  0  0  0  0  0  0  0
    3.8268   -1.6434    0.8765 C   0  0  0  0  0  0  0  0  0  0  0  0
    2.7567   -2.2243    1.5542 C   0  0  0  0  0  0  0  0  0  0  0  0
    2.9879   -3.2405    2.4596 C   0  0  0  0  0  0  0  0  0  0  0  0
    4.2770   -3.6829    2.6952 C   0  0  0  0  0  0  0  0  0  0  0  0
    5.3395   -3.1149    2.0221 C   0  0  0  0  0  0  0  0  0  0  0  0
    6.7418   -0.2397    1.1762 C   0  0  0  0  0  0  0  0  0  0  0  0
    6.1916    0.0644    2.2134 O   0  0  0  0  0  0  0  0  0  0  0  0
    7.7670    0.5032    0.7142 N   0  0  0  0  0  0  0  0  0  0  0  0
    8.1938    1.6179    1.4264 C   0  0  0  0  0  0  0  0  0  0  0  0
    9.1639    2.4554    1.1297 N   0  0  0  0  0  0  0  0  0  0  0  0
    9.4491    3.4759    1.9172 C   0  0  0  0  0  0  0  0  0  0  0  0
    8.6993    3.6178    3.0378 C   0  0  0  0  0  0  0  0  0  0  0  0
    7.5902    2.2282    2.8741 S   0  0  0  0  0  0  0  0  0  0  0  0
   10.5589    4.4399    1.5855 C   0  0  0  0  0  0  0  0  0  0  0  0
   11.8428    3.6773    1.3828 C   0  0  0  0  0  0  0  0  0  0  0  0
   11.8554    2.4699    1.4966 O   0  0  0  0  0  0  0  0  0  0  0  0
   12.9771    4.3371    1.0752 N   0  0  0  0  0  0  0  0  0  0  0  0
   14.1835    3.6206    0.8848 O   0  0  0  0  0  0  0  0  0  0  0  0
   -0.9588    1.9070    0.0219 H   0  0  0  0  0  0  0  0  0  0  0  0
   -0.1690    0.8529   -2.0561 H   0  0  0  0  0  0  0  0  0  0  0  0
    1.9796   -0.3447   -2.0931 H   0  0  0  0  0  0  0  0  0  0  0  0
    2.5409    0.5679    2.0557 H   0  0  0  0  0  0  0  0  0  0  0  0
    0.3900    1.7617    2.0743 H   0  0  0  0  0  0  0  0  0  0  0  0
    4.3005    0.5128   -1.5829 H   0  0  0  0  0  0  0  0  0  0  0  0
    5.7146   -1.9013   -1.6244 H   0  0  0  0  0  0  0  0  0  0  0  0
    7.0978   -2.1625    0.3172 H   0  0  0  0  0  0  0  0  0  0  0  0
    1.7494   -1.8803    1.3720 H   0  0  0  0  0  0  0  0  0  0  0  0
    2.1596   -3.6912    2.9859 H   0  0  0  0  0  0  0  0  0  0  0  0
    4.4515   -4.4809    3.4017 H   0  0  0  0  0  0  0  0  0  0  0  0
    6.3443   -3.4638    2.2095 H   0  0  0  0  0  0  0  0  0  0  0  0
    8.2070    0.2601   -0.1154 H   0  0  0  0  0  0  0  0  0  0  0  0
    8.7551    4.3670    3.8136 H   0  0  0  0  0  0  0  0  0  0  0  0
   10.3096    4.9808    0.6726 H   0  0  0  0  0  0  0  0  0  0  0  0
   10.6822    5.1478    2.4050 H   0  0  0  0  0  0  0  0  0  0  0  0
   12.9670    5.3028    0.9843 H   0  0  0  0  0  0  0  0  0  0  0  0
   14.9425    4.1790    0.6677 H   0  0  0  0  0  0  0  0  0  0  0  0
    6.5688   -0.3539   -1.4281 H   0  0  0  0  0  0  0  0  0  0  0  0
  1  6  2  0  0  0  0
  1  2  1  0  0  0  0
  1 30  1  0  0  0  0
  2  3  2  0  0  0  0
  2 31  1  0  0  0  0
  3  4  1  0  0  0  0
  3 32  1  0  0  0  0
  4  5  2  0  0  0  0
  4  7  1  0  0  0  0
  5  6  1  0  0  0  0
  5 33  1  0  0  0  0
  6 34  1  0  0  0  0
  7 12  1  0  0  0  0
  7  8  2  0  0  0  0
  8  9  1  0  0  0  0
  8 35  1  0  0  0  0
  9 10  1  0  0  0  0
  9 36  1  0  0  0  0
  9 48  1  0  0  0  0
 10 11  1  0  0  0  0
 10 17  1  0  0  0  0
 10 37  1  0  0  0  0
 11 16  2  0  0  0  0
 11 12  1  0  0  0  0
 12 13  2  0  0  0  0
 13 14  1  0  0  0  0
 13 38  1  0  0  0  0
 14 15  2  0  0  0  0
 14 39  1  0  0  0  0
 15 16  1  0  0  0  0
 15 40  1  0  0  0  0
 16 41  1  0  0  0  0
 17 18  2  0  0  0  0
 17 19  1  0  0  0  0
 19 20  1  0  0  0  0
 19 42  1  0  0  0  0
 20 24  1  0  0  0  0
 20 21  2  0  0  0  0
 21 22  1  0  0  0  0
 22 23  2  0  0  0  0
 22 25  1  0  0  0  0
 23 24  1  0  0  0  0
 23 43  1  0  0  0  0
 25 26  1  0  0  0  0
 25 44  1  0  0  0  0
 25 45  1  0  0  0  0
 26 27  2  0  0  0  0
 26 28  1  0  0  0  0
 28 29  1  0  0  0  0
 28 46  1  0  0  0  0
 29 47  1  0  0  0  0
M  CHG  1   7   1
M  END
$$$$
CHEMBL190948
  -OEChem-07121202283D

 47 50  0     1  0  0  0  0  0999 V2000
   -0.0162    1.3795    0.0108 C   0  0  0  0  0  0  0  0  0  0  0  0
    0.4210    0.7207    1.1454 C   0  0  0  0  0  0  0  0  0  0  0  0
    1.6263    0.0468    1.1332 C   0  0  0  0  0  0  0  0  0  0  0  0
    2.3999    0.0312   -0.0207 C   0  0  0  0  0  0  0  0  0  0  0  0
    1.9576    0.6941   -1.1588 C   0  0  0  0  0  0  0  0  0  0  0  0
    0.7513    1.3660   -1.1395 C   0  0  0  0  0  0  0  0  0  0  0  0
    3.6209   -0.6497   -0.0365 N   0  0  0  0  0  0  0  0  0  0  0  0
    4.8127    0.0553   -0.1434 C   0  0  0  0  0  0  0  0  0  0  0  0
    5.9612   -0.4924    0.1770 C   0  0  0  0  0  0  0  0  0  0  0  0
    6.0780   -1.8980    0.6850 C   0  0  2  0  0  0  0  0  0  0  0  0
    4.8304   -2.6879    0.4016 C   0  0  0  0  0  0  0  0  0  0  0  0
    3.6500   -2.0440    0.0610 C   0  0  0  0  0  0  0  0  0  0  0  0
    2.5020   -2.7840   -0.1881 C   0  0  0  0  0  0  0  0  0  0  0  0
    2.5375   -4.1618   -0.0943 C   0  0  0  0  0  0  0  0  0  0  0  0
    3.7153   -4.8008    0.2470 C   0  0  0  0  0  0  0  0  0  0  0  0
    4.8574   -4.0675    0.4866 C   0  0  0  0  0  0  0  0  0  0  0  0
    6.3146   -1.8666    2.1730 C   0  0  0  0  0  0  0  0  0  0  0  0
    5.5265   -2.4017    2.9238 O   0  0  0  0  0  0  0  0  0  0  0  0
    7.4019   -1.2439    2.6695 N   0  0  0  0  0  0  0  0  0  0  0  0
    7.6200   -1.2149    4.0420 C   0  0  0  0  0  0  0  0  0  0  0  0
    8.6122   -0.6559    4.7004 N   0  0  0  0  0  0  0  0  0  0  0  0
    8.6772   -0.7168    6.0175 C   0  0  0  0  0  0  0  0  0  0  0  0
    7.6794   -1.3783    6.6537 C   0  0  0  0  0  0  0  0  0  0  0  0
    6.6751   -1.8803    5.2655 S   0  0  0  0  0  0  0  0  0  0  0  0
    9.8103   -0.0797    6.7799 C   0  0  0  0  0  0  0  0  0  0  0  0
   11.1237   -0.6016    6.2569 C   0  0  0  0  0  0  0  0  0  0  0  0
   11.1383   -1.4112    5.3540 O   0  0  0  0  0  0  0  0  0  0  0  0
   12.2823   -0.1688    6.7926 N   0  0  0  0  0  0  0  0  0  0  0  0
   13.5164   -0.6592    6.3012 O   0  0  0  0  0  0  0  0  0  0  0  0
   -0.9614    1.9020    0.0218 H   0  0  0  0  0  0  0  0  0  0  0  0
   -0.1807    0.7335    2.0422 H   0  0  0  0  0  0  0  0  0  0  0  0
    1.9674   -0.4672    2.0197 H   0  0  0  0  0  0  0  0  0  0  0  0
    2.5567    0.6842   -2.0573 H   0  0  0  0  0  0  0  0  0  0  0  0
    0.4067    1.8812   -2.0240 H   0  0  0  0  0  0  0  0  0  0  0  0
    4.7938    1.0753   -0.4979 H   0  0  0  0  0  0  0  0  0  0  0  0
    6.8614    0.0947    0.0698 H   0  0  0  0  0  0  0  0  0  0  0  0
    6.9253   -2.3832    0.2004 H   0  0  0  0  0  0  0  0  0  0  0  0
    1.5828   -2.2834   -0.4544 H   0  0  0  0  0  0  0  0  0  0  0  0
    1.6456   -4.7396   -0.2870 H   0  0  0  0  0  0  0  0  0  0  0  0
    3.7418   -5.8781    0.3185 H   0  0  0  0  0  0  0  0  0  0  0  0
    5.7741   -4.5730    0.7524 H   0  0  0  0  0  0  0  0  0  0  0  0
    8.0321   -0.8159    2.0691 H   0  0  0  0  0  0  0  0  0  0  0  0
    7.5310   -1.5509    7.7094 H   0  0  0  0  0  0  0  0  0  0  0  0
    9.7720    1.0020    6.6511 H   0  0  0  0  0  0  0  0  0  0  0  0
    9.7182   -0.3231    7.8384 H   0  0  0  0  0  0  0  0  0  0  0  0
   12.2706    0.4788    7.5147 H   0  0  0  0  0  0  0  0  0  0  0  0
   14.2915   -0.2911    6.7471 H   0  0  0  0  0  0  0  0  0  0  0  0
  1  6  2  0  0  0  0
  1  2  1  0  0  0  0
  1 30  1  0  0  0  0
  2  3  2  0  0  0  0
  2 31  1  0  0  0  0
  3  4  1  0  0  0  0
  3 32  1  0  0  0  0
  4  5  2  0  0  0  0
  4  7  1  0  0  0  0
  5  6  1  0  0  0  0
  5 33  1  0  0  0  0
  6 34  1  0  0  0  0
  7 12  1  0  0  0  0
  7  8  1  0  0  0  0
  8  9  2  0  0  0  0
  8 35  1  0  0  0  0
  9 10  1  0  0  0  0
  9 36  1  0  0  0  0
 10 11  1  0  0  0  0
 10 17  1  0  0  0  0
 10 37  1  0  0  0  0
 11 16  2  0  0  0  0
 11 12  1  0  0  0  0
 12 13  2  0  0  0  0
 13 14  1  0  0  0  0
 13 38  1  0  0  0  0
 14 15  2  0  0  0  0
 14 39  1  0  0  0  0
 15 16  1  0  0  0  0
 15 40  1  0  0  0  0
 16 41  1  0  0  0  0
 17 18  2  0  0  0  0
 17 19  1  0  0  0  0
 19 20  1  0  0  0  0
 19 42  1  0  0  0  0
 20 24  1  0  0  0  0
 20 21  2  0  0  0  0
 21 22  1  0  0  0  0
 22 23  2  0  0  0  0
 22 25  1  0  0  0  0
 23 24  1  0  0  0  0
 23 43  1  0  0  0  0
 25 26  1  0  0  0  0
 25 44  1  0  0  0  0
 25 45  1  0  0  0  0
 26 27  2  0  0  0  0
 26 28  1  0  0  0  0
 28 29  1  0  0  0  0
 28 46  1  0  0  0  0
 29 47  1  0  0  0  0
M  END
$$$$
CHEMBL190948
  -OEChem-07121202283D

 48 51  0     1  0  0  0  0  0999 V2000
   -0.0167    1.3791    0.0096 C   0  0  0  0  0  0  0  0  0  0  0  0
    1.1687    2.0921    0.0021 C   0  0  0  0  0  0  0  0  0  0  0  0
    2.3774    1.4262   -0.0129 C   0  0  0  0  0  0  0  0  0  0  0  0
    2.4023    0.0328   -0.0206 C   0  0  0  0  0  0  0  0  0  0  0  0
    1.2050   -0.6804   -0.0130 C   0  0  0  0  0  0  0  0  0  0  0  0
    0.0021   -0.0041    0.0020 C   0  0  0  0  0  0  0  0  0  0  0  0
    3.6072   -0.6377   -0.0361 N   0  3  0  0  0  0  0  0  0  0  0  0
    4.5394   -0.2395   -0.8372 C   0  0  0  0  0  0  0  0  0  0  0  0
    5.8866   -0.9091   -0.8751 C   0  0  0  0  0  0  0  0  0  0  0  0
    5.7305   -2.4097   -0.6189 C   0  0  1  0  0  0  0  0  0  0  0  0
    4.8235   -2.6147    0.5683 C   0  0  0  0  0  0  0  0  0  0  0  0
    3.7886   -1.7105    0.8057 C   0  0  0  0  0  0  0  0  0  0  0  0
    2.9410   -1.9007    1.8954 C   0  0  0  0  0  0  0  0  0  0  0  0
    3.1393   -2.9746    2.7399 C   0  0  0  0  0  0  0  0  0  0  0  0
    4.1755   -3.8607    2.5077 C   0  0  0  0  0  0  0  0  0  0  0  0
    5.0144   -3.6847    1.4158 C   0  0  0  0  0  0  0  0  0  0  0  0
    5.1280   -3.0683   -1.8331 C   0  0  0  0  0  0  0  0  0  0  0  0
    4.0700   -3.6544   -1.7429 O   0  0  0  0  0  0  0  0  0  0  0  0
    5.7649   -3.0060   -3.0193 N   0  0  0  0  0  0  0  0  0  0  0  0
    5.2092   -3.6135   -4.1392 C   0  0  0  0  0  0  0  0  0  0  0  0
    5.6853   -3.6602   -5.3646 N   0  0  0  0  0  0  0  0  0  0  0  0
    5.0312   -4.2830   -6.3275 C   0  0  0  0  0  0  0  0  0  0  0  0
    3.8541   -4.8675   -5.9946 C   0  0  0  0  0  0  0  0  0  0  0  0
    3.7676   -4.4741   -4.2551 S   0  0  0  0  0  0  0  0  0  0  0  0
    5.5687   -4.3412   -7.7341 C   0  0  0  0  0  0  0  0  0  0  0  0
    5.8374   -2.9428   -8.2275 C   0  0  0  0  0  0  0  0  0  0  0  0
    5.6144   -1.9925   -7.5077 O   0  0  0  0  0  0  0  0  0  0  0  0
    6.3256   -2.7482   -9.4685 N   0  0  0  0  0  0  0  0  0  0  0  0
    6.5781   -1.4343   -9.9321 O   0  0  0  0  0  0  0  0  0  0  0  0
   -0.9603    1.9042    0.0260 H   0  0  0  0  0  0  0  0  0  0  0  0
    1.1482    3.1719    0.0077 H   0  0  0  0  0  0  0  0  0  0  0  0
    3.3023    1.9839   -0.0191 H   0  0  0  0  0  0  0  0  0  0  0  0
    1.2185   -1.7603   -0.0189 H   0  0  0  0  0  0  0  0  0  0  0  0
   -0.9264   -0.5557    0.0082 H   0  0  0  0  0  0  0  0  0  0  0  0
    4.3470    0.5943   -1.4961 H   0  0  0  0  0  0  0  0  0  0  0  0
    6.3404   -0.7542   -1.8539 H   0  0  0  0  0  0  0  0  0  0  0  0
    6.7068   -2.8477   -0.4117 H   0  0  0  0  0  0  0  0  0  0  0  0
    2.1316   -1.2097    2.0789 H   0  0  0  0  0  0  0  0  0  0  0  0
    2.4833   -3.1231    3.5849 H   0  0  0  0  0  0  0  0  0  0  0  0
    4.3282   -4.6968    3.1740 H   0  0  0  0  0  0  0  0  0  0  0  0
    5.8220   -4.3789    1.2359 H   0  0  0  0  0  0  0  0  0  0  0  0
    6.6111   -2.5373   -3.0914 H   0  0  0  0  0  0  0  0  0  0  0  0
    3.1616   -5.4217   -6.6108 H   0  0  0  0  0  0  0  0  0  0  0  0
    6.4955   -4.9148   -7.7455 H   0  0  0  0  0  0  0  0  0  0  0  0
    4.8364   -4.8211   -8.3834 H   0  0  0  0  0  0  0  0  0  0  0  0
    6.5040   -3.5083  -10.0442 H   0  0  0  0  0  0  0  0  0  0  0  0
    6.9267   -1.3953  -10.8332 H   0  0  0  0  0  0  0  0  0  0  0  0
    6.5279   -0.4757   -0.1076 H   0  0  0  0  0  0  0  0  0  0  0  0
  1  6  2  0  0  0  0
  1  2  1  0  0  0  0
  1 30  1  0  0  0  0
  2  3  2  0  0  0  0
  2 31  1  0  0  0  0
  3  4  1  0  0  0  0
  3 32  1  0  0  0  0
  4  5  2  0  0  0  0
  4  7  1  0  0  0  0
  5  6  1  0  0  0  0
  5 33  1  0  0  0  0
  6 34  1  0  0  0  0
  7 12  1  0  0  0  0
  7  8  2  0  0  0  0
  8  9  1  0  0  0  0
  8 35  1  0  0  0  0
  9 10  1  0  0  0  0
  9 36  1  0  0  0  0
  9 48  1  0  0  0  0
 10 11  1  0  0  0  0
 10 17  1  0  0  0  0
 10 37  1  0  0  0  0
 11 16  2  0  0  0  0
 11 12  1  0  0  0  0
 12 13  2  0  0  0  0
 13 14  1  0  0  0  0
 13 38  1  0  0  0  0
 14 15  2  0  0  0  0
 14 39  1  0  0  0  0
 15 16  1  0  0  0  0
 15 40  1  0  0  0  0
 16 41  1  0  0  0  0
 17 18  2  0  0  0  0
 17 19  1  0  0  0  0
 19 20  1  0  0  0  0
 19 42  1  0  0  0  0
 20 24  1  0  0  0  0
 20 21  2  0  0  0  0
 21 22  1  0  0  0  0
 22 23  2  0  0  0  0
 22 25  1  0  0  0  0
 23 24  1  0  0  0  0
 23 43  1  0  0  0  0
 25 26  1  0  0  0  0
 25 44  1  0  0  0  0
 25 45  1  0  0  0  0
 26 27  2  0  0  0  0
 26 28  1  0  0  0  0
 28 29  1  0  0  0  0
 28 46  1  0  0  0  0
 29 47  1  0  0  0  0
M  CHG  1   7   1
M  END
$$$$
CHEMBL190948
  -OEChem-07121202283D

 47 50  0     1  0  0  0  0  0999 V2000
   -0.0162    1.3795    0.0108 C   0  0  0  0  0  0  0  0  0  0  0  0
    0.4210    0.7207    1.1454 C   0  0  0  0  0  0  0  0  0  0  0  0
    1.6263    0.0468    1.1332 C   0  0  0  0  0  0  0  0  0  0  0  0
    2.3999    0.0312   -0.0207 C   0  0  0  0  0  0  0  0  0  0  0  0
    1.9576    0.6941   -1.1588 C   0  0  0  0  0  0  0  0  0  0  0  0
    0.7513    1.3660   -1.1395 C   0  0  0  0  0  0  0  0  0  0  0  0
    3.6209   -0.6497   -0.0365 N   0  0  0  0  0  0  0  0  0  0  0  0
    4.8127    0.0553   -0.1434 C   0  0  0  0  0  0  0  0  0  0  0  0
    5.9612   -0.4924    0.1770 C   0  0  0  0  0  0  0  0  0  0  0  0
    6.0780   -1.8980    0.6850 C   0  0  1  0  0  0  0  0  0  0  0  0
    4.8304   -2.6879    0.4016 C   0  0  0  0  0  0  0  0  0  0  0  0
    3.6500   -2.0440    0.0610 C   0  0  0  0  0  0  0  0  0  0  0  0
    2.5020   -2.7840   -0.1881 C   0  0  0  0  0  0  0  0  0  0  0  0
    2.5375   -4.1618   -0.0943 C   0  0  0  0  0  0  0  0  0  0  0  0
    3.7153   -4.8008    0.2470 C   0  0  0  0  0  0  0  0  0  0  0  0
    4.8574   -4.0675    0.4866 C   0  0  0  0  0  0  0  0  0  0  0  0
    7.2494   -2.5689    0.0150 C   0  0  0  0  0  0  0  0  0  0  0  0
    7.0761   -3.5659   -0.6536 O   0  0  0  0  0  0  0  0  0  0  0  0
    8.4895   -2.0610    0.1587 N   0  0  0  0  0  0  0  0  0  0  0  0
    9.5699   -2.6798   -0.4593 C   0  0  0  0  0  0  0  0  0  0  0  0
   10.8385   -2.3333   -0.4270 N   0  0  0  0  0  0  0  0  0  0  0  0
   11.7532   -3.0319   -1.0736 C   0  0  0  0  0  0  0  0  0  0  0  0
   11.3250   -4.1151   -1.7672 C   0  0  0  0  0  0  0  0  0  0  0  0
    9.5736   -4.0584   -1.4247 S   0  0  0  0  0  0  0  0  0  0  0  0
   13.2086   -2.6421   -1.0426 C   0  0  0  0  0  0  0  0  0  0  0  0
   13.3555   -1.2122   -1.4952 C   0  0  0  0  0  0  0  0  0  0  0  0
   12.3749   -0.5726   -1.8119 O   0  0  0  0  0  0  0  0  0  0  0  0
   14.5766   -0.6442   -1.5482 N   0  0  0  0  0  0  0  0  0  0  0  0
   14.7146    0.6993   -1.9735 O   0  0  0  0  0  0  0  0  0  0  0  0
   -0.9614    1.9020    0.0218 H   0  0  0  0  0  0  0  0  0  0  0  0
   -0.1807    0.7335    2.0422 H   0  0  0  0  0  0  0  0  0  0  0  0
    1.9673   -0.4672    2.0197 H   0  0  0  0  0  0  0  0  0  0  0  0
    2.5567    0.6843   -2.0573 H   0  0  0  0  0  0  0  0  0  0  0  0
    0.4067    1.8812   -2.0239 H   0  0  0  0  0  0  0  0  0  0  0  0
    4.7938    1.0753   -0.4979 H   0  0  0  0  0  0  0  0  0  0  0  0
    6.8614    0.0947    0.0698 H   0  0  0  0  0  0  0  0  0  0  0  0
    6.2491   -1.8753    1.7613 H   0  0  0  0  0  0  0  0  0  0  0  0
    1.5830   -2.2835   -0.4551 H   0  0  0  0  0  0  0  0  0  0  0  0
    1.6456   -4.7396   -0.2870 H   0  0  0  0  0  0  0  0  0  0  0  0
    3.7418   -5.8781    0.3185 H   0  0  0  0  0  0  0  0  0  0  0  0
    5.7741   -4.5730    0.7524 H   0  0  0  0  0  0  0  0  0  0  0  0
    8.6280   -1.2636    0.6934 H   0  0  0  0  0  0  0  0  0  0  0  0
   11.8884   -4.8202   -2.3603 H   0  0  0  0  0  0  0  0  0  0  0  0
   13.5900   -2.7425   -0.0264 H   0  0  0  0  0  0  0  0  0  0  0  0
   13.7736   -3.2940   -1.7088 H   0  0  0  0  0  0  0  0  0  0  0  0
   15.3609   -1.1558   -1.2949 H   0  0  0  0  0  0  0  0  0  0  0  0
   15.6274    1.0185   -1.9786 H   0  0  0  0  0  0  0  0  0  0  0  0
  1  6  2  0  0  0  0
  1  2  1  0  0  0  0
  1 30  1  0  0  0  0
  2  3  2  0  0  0  0
  2 31  1  0  0  0  0
  3  4  1  0  0  0  0
  3 32  1  0  0  0  0
  4  5  2  0  0  0  0
  4  7  1  0  0  0  0
  5  6  1  0  0  0  0
  5 33  1  0  0  0  0
  6 34  1  0  0  0  0
  7 12  1  0  0  0  0
  7  8  1  0  0  0  0
  8  9  2  0  0  0  0
  8 35  1  0  0  0  0
  9 10  1  0  0  0  0
  9 36  1  0  0  0  0
 10 11  1  0  0  0  0
 10 17  1  0  0  0  0
 10 37  1  0  0  0  0
 11 16  2  0  0  0  0
 11 12  1  0  0  0  0
 12 13  2  0  0  0  0
 13 14  1  0  0  0  0
 13 38  1  0  0  0  0
 14 15  2  0  0  0  0
 14 39  1  0  0  0  0
 15 16  1  0  0  0  0
 15 40  1  0  0  0  0
 16 41  1  0  0  0  0
 17 18  2  0  0  0  0
 17 19  1  0  0  0  0
 19 20  1  0  0  0  0
 19 42  1  0  0  0  0
 20 24  1  0  0  0  0
 20 21  2  0  0  0  0
 21 22  1  0  0  0  0
 22 23  2  0  0  0  0
 22 25  1  0  0  0  0
 23 24  1  0  0  0  0
 23 43  1  0  0  0  0
 25 26  1  0  0  0  0
 25 44  1  0  0  0  0
 25 45  1  0  0  0  0
 26 27  2  0  0  0  0
 26 28  1  0  0  0  0
 28 29  1  0  0  0  0
 28 46  1  0  0  0  0
 29 47  1  0  0  0  0
M  END
$$$$
CHEMBL77651
  -OEChem-07121202283D

 47 49  0     0  0  0  0  0  0999 V2000
   -0.6995    0.2939   -0.7019 C   0  0  0  0  0  0  0  0  0  0  0  0
   -0.5002   -1.1703   -0.4060 C   0  0  0  0  0  0  0  0  0  0  0  0
   -0.1557   -1.5543    0.7981 C   0  0  0  0  0  0  0  0  0  0  0  0
   -0.0870   -0.5490    1.9187 C   0  0  0  0  0  0  0  0  0  0  0  0
   -1.0034   -0.9782    3.0354 C   0  0  0  0  0  0  0  0  0  0  0  0
   -2.3254   -0.5612    3.0455 C   0  0  0  0  0  0  0  0  0  0  0  0
   -3.1834   -0.9492    4.0688 C   0  0  0  0  0  0  0  0  0  0  0  0
   -2.7240   -1.7587    5.0912 C   0  0  0  0  0  0  0  0  0  0  0  0
   -1.3893   -2.1840    5.0876 C   0  0  0  0  0  0  0  0  0  0  0  0
   -0.5253   -1.7945    4.0489 C   0  0  0  0  0  0  0  0  0  0  0  0
    0.7579   -2.2125    4.0503 O   0  0  0  0  0  0  0  0  0  0  0  0
    1.2548   -3.0035    5.0166 C   0  0  0  0  0  0  0  0  0  0  0  0
    0.5002   -3.4405    6.0636 C   0  0  0  0  0  0  0  0  0  0  0  0
   -0.8596   -3.0456    6.1567 C   0  0  0  0  0  0  0  0  0  0  0  0
   -1.5662   -3.4174    7.0800 O   0  0  0  0  0  0  0  0  0  0  0  0
    1.0488   -4.2409    7.0177 O   0  0  0  0  0  0  0  0  0  0  0  0
    2.6690   -3.4142    4.9407 C   0  0  0  0  0  0  0  0  0  0  0  0
    3.0197   -4.7561    5.1149 C   0  0  0  0  0  0  0  0  0  0  0  0
    4.3420   -5.1352    5.0426 C   0  0  0  0  0  0  0  0  0  0  0  0
    5.3266   -4.1860    4.7969 C   0  0  0  0  0  0  0  0  0  0  0  0
    4.9827   -2.8509    4.6236 C   0  0  0  0  0  0  0  0  0  0  0  0
    3.6624   -2.4636    4.6885 C   0  0  0  0  0  0  0  0  0  0  0  0
    6.6289   -4.5642    4.7265 O   0  0  0  0  0  0  0  0  0  0  0  0
   -3.5598   -2.1381    6.0909 O   0  0  0  0  0  0  0  0  0  0  0  0
   -4.9062   -1.6640    6.0258 C   0  0  0  0  0  0  0  0  0  0  0  0
   -2.7869    0.2342    2.0468 O   0  0  0  0  0  0  0  0  0  0  0  0
   -0.6973   -2.1927   -1.4954 C   0  0  0  0  0  0  0  0  0  0  0  0
    0.1966    0.8468   -0.4198 H   0  0  0  0  0  0  0  0  0  0  0  0
   -0.8882    0.4269   -1.7671 H   0  0  0  0  0  0  0  0  0  0  0  0
   -1.5509    0.6670   -0.1327 H   0  0  0  0  0  0  0  0  0  0  0  0
    0.0791   -2.5912    0.9877 H   0  0  0  0  0  0  0  0  0  0  0  0
    0.9358   -0.4890    2.2908 H   0  0  0  0  0  0  0  0  0  0  0  0
   -0.3972    0.4285    1.5495 H   0  0  0  0  0  0  0  0  0  0  0  0
   -4.2111   -0.6171    4.0651 H   0  0  0  0  0  0  0  0  0  0  0  0
    0.4331   -4.4971    7.7179 H   0  0  0  0  0  0  0  0  0  0  0  0
    2.2551   -5.4944    5.3062 H   0  0  0  0  0  0  0  0  0  0  0  0
    4.6138   -6.1717    5.1774 H   0  0  0  0  0  0  0  0  0  0  0  0
    5.7514   -2.1165    4.4332 H   0  0  0  0  0  0  0  0  0  0  0  0
    3.3956   -1.4264    4.5492 H   0  0  0  0  0  0  0  0  0  0  0  0
    6.9198   -4.8091    3.8374 H   0  0  0  0  0  0  0  0  0  0  0  0
   -5.4655   -2.0395    6.8827 H   0  0  0  0  0  0  0  0  0  0  0  0
   -4.9088   -0.5741    6.0397 H   0  0  0  0  0  0  0  0  0  0  0  0
   -5.3716   -2.0167    5.1054 H   0  0  0  0  0  0  0  0  0  0  0  0
   -3.1499   -0.2512    1.2934 H   0  0  0  0  0  0  0  0  0  0  0  0
    0.2467   -2.3563   -2.0153 H   0  0  0  0  0  0  0  0  0  0  0  0
   -1.0374   -3.1306   -1.0563 H   0  0  0  0  0  0  0  0  0  0  0  0
   -1.4436   -1.8309   -2.2026 H   0  0  0  0  0  0  0  0  0  0  0  0
  1  2  1  0  0  0  0
  1 28  1  0  0  0  0
  1 29  1  0  0  0  0
  1 30  1  0  0  0  0
  2  3  2  0  0  0  0
  2 27  1  0  0  0  0
  3  4  1  0  0  0  0
  3 31  1  0  0  0  0
  4  5  1  0  0  0  0
  4 32  1  0  0  0  0
  4 33  1  0  0  0  0
  5 10  2  0  0  0  0
  5  6  1  0  0  0  0
  6  7  2  0  0  0  0
  6 26  1  0  0  0  0
  7  8  1  0  0  0  0
  7 34  1  0  0  0  0
  8  9  2  0  0  0  0
  8 24  1  0  0  0  0
  9 14  1  0  0  0  0
  9 10  1  0  0  0  0
 10 11  1  0  0  0  0
 11 12  1  0  0  0  0
 12 13  2  0  0  0  0
 12 17  1  0  0  0  0
 13 14  1  0  0  0  0
 13 16  1  0  0  0  0
 14 15  2  0  0  0  0
 16 35  1  0  0  0  0
 17 22  2  0  0  0  0
 17 18  1  0  0  0  0
 18 19  2  0  0  0  0
 18 36  1  0  0  0  0
 19 20  1  0  0  0  0
 19 37  1  0  0  0  0
 20 21  2  0  0  0  0
 20 23  1  0  0  0  0
 21 22  1  0  0  0  0
 21 38  1  0  0  0  0
 22 39  1  0  0  0  0
 23 40  1  0  0  0  0
 24 25  1  0  0  0  0
 25 41  1  0  0  0  0
 25 42  1  0  0  0  0
 25 43  1  0  0  0  0
 26 44  1  0  0  0  0
 27 45  1  0  0  0  0
 27 46  1  0  0  0  0
 27 47  1  0  0  0  0
M  END
$$$$
CHEMBL141518
  -OEChem-07121202283D

 46 51  0     1  0  0  0  0  0999 V2000
   -0.0178    1.4608    0.0101 C   0  0  0  0  0  0  0  0  0  0  0  0
    0.0021   -0.0041    0.0020 N   0  0  0  0  0  0  0  0  0  0  0  0
   -1.1853   -0.8721    0.0028 C   0  0  0  0  0  0  0  0  0  0  0  0
   -0.6048   -2.2984    0.0109 C   0  0  1  0  0  0  0  0  0  0  0  0
   -0.8986   -2.8460    0.9063 H   0  0  0  0  0  0  0  0  0  0  0  0
   -1.0373   -3.0327   -1.2640 C   0  0  0  0  0  0  0  0  0  0  0  0
   -0.0447   -4.1258   -1.5705 C   0  0  0  0  0  0  0  0  0  0  0  0
   -0.2428   -5.2855   -2.4202 C   0  0  0  0  0  0  0  0  0  0  0  0
   -1.3350   -5.7321   -3.1701 C   0  0  0  0  0  0  0  0  0  0  0  0
   -1.1681   -6.8996   -3.8735 C   0  0  0  0  0  0  0  0  0  0  0  0
    0.0210   -7.6098   -3.8488 C   0  0  0  0  0  0  0  0  0  0  0  0
    1.1175   -7.1901   -3.1159 C   0  0  0  0  0  0  0  0  0  0  0  0
    0.9772   -6.0076   -2.3921 C   0  0  0  0  0  0  0  0  0  0  0  0
    1.8361   -5.3213   -1.5833 N   0  0  0  0  0  0  0  0  0  0  0  0
    2.7478   -5.5863   -1.3844 H   0  0  0  0  0  0  0  0  0  0  0  0
    1.2163   -4.2016   -1.0955 C   0  0  0  0  0  0  0  0  0  0  0  0
    1.8225   -3.1821   -0.1525 C   0  0  2  0  0  0  0  0  0  0  0  0
    1.9762   -3.6269    0.8307 H   0  0  0  0  0  0  0  0  0  0  0  0
    0.8560   -2.0747   -0.0363 N   0  0  0  0  0  0  0  0  0  0  0  0
    1.1055   -0.7656   -0.0131 C   0  0  0  0  0  0  0  0  0  0  0  0
    2.2305   -0.3045   -0.0032 O   0  0  0  0  0  0  0  0  0  0  0  0
    3.1328   -2.6824   -0.7041 C   0  0  0  0  0  0  0  0  0  0  0  0
    3.1416   -1.7096   -1.6865 C   0  0  0  0  0  0  0  0  0  0  0  0
    4.3411   -1.2477   -2.1952 C   0  0  0  0  0  0  0  0  0  0  0  0
    5.5382   -1.7595   -1.7215 C   0  0  0  0  0  0  0  0  0  0  0  0
    5.5294   -2.7394   -0.7319 C   0  0  0  0  0  0  0  0  0  0  0  0
    4.3236   -3.1935   -0.2226 C   0  0  0  0  0  0  0  0  0  0  0  0
    6.8196   -3.0754   -0.4391 O   0  0  0  0  0  0  0  0  0  0  0  0
    7.6038   -2.5888   -1.5443 C   0  0  0  0  0  0  0  0  0  0  0  0
    6.8340   -1.4815   -2.0486 O   0  0  0  0  0  0  0  0  0  0  0  0
    1.0048    1.8381    0.0023 H   0  0  0  0  0  0  0  0  0  0  0  0
   -0.5450    1.8219   -0.8730 H   0  0  0  0  0  0  0  0  0  0  0  0
   -0.5280    1.8123    0.9069 H   0  0  0  0  0  0  0  0  0  0  0  0
   -1.7849   -0.6986    0.8964 H   0  0  0  0  0  0  0  0  0  0  0  0
   -1.7801   -0.7068   -0.8956 H   0  0  0  0  0  0  0  0  0  0  0  0
   -2.0249   -3.4692   -1.1151 H   0  0  0  0  0  0  0  0  0  0  0  0
   -1.0716   -2.3287   -2.0955 H   0  0  0  0  0  0  0  0  0  0  0  0
   -2.2658   -5.1849   -3.1948 H   0  0  0  0  0  0  0  0  0  0  0  0
   -1.9900   -7.2762   -4.4643 H   0  0  0  0  0  0  0  0  0  0  0  0
    0.0949   -8.5228   -4.4210 H   0  0  0  0  0  0  0  0  0  0  0  0
    2.0393   -7.7528   -3.1056 H   0  0  0  0  0  0  0  0  0  0  0  0
    2.2094   -1.3101   -2.0575 H   0  0  0  0  0  0  0  0  0  0  0  0
    4.3450   -0.4877   -2.9626 H   0  0  0  0  0  0  0  0  0  0  0  0
    4.3138   -3.9501    0.5480 H   0  0  0  0  0  0  0  0  0  0  0  0
    8.5815   -2.2507   -1.2007 H   0  0  0  0  0  0  0  0  0  0  0  0
    7.7105   -3.3601   -2.3071 H   0  0  0  0  0  0  0  0  0  0  0  0
  1  2  1  0  0  0  0
  1 31  1  0  0  0  0
  1 32  1  0  0  0  0
  1 33  1  0  0  0  0
  2 20  1  0  0  0  0
  2  3  1  0  0  0  0
  3  4  1  0  0  0  0
  3 34  1  0  0  0  0
  3 35  1  0  0  0  0
  4  5  1  0  0  0  0
  4 19  1  0  0  0  0
  4  6  1  0  0  0  0
  6  7  1  0  0  0  0
  6 36  1  0  0  0  0
  6 37  1  0  0  0  0
  7 16  2  0  0  0  0
  7  8  1  0  0  0  0
  8 13  2  0  0  0  0
  8  9  1  0  0  0  0
  9 10  2  0  0  0  0
  9 38  1  0  0  0  0
 10 11  1  0  0  0  0
 10 39  1  0  0  0  0
 11 12  2  0  0  0  0
 11 40  1  0  0  0  0
 12 13  1  0  0  0  0
 12 41  1  0  0  0  0
 13 14  1  0  0  0  0
 14 15  1  0  0  0  0
 14 16  1  0  0  0  0
 16 17  1  0  0  0  0
 17 18  1  0  0  0  0
 17 19  1  0  0  0  0
 17 22  1  0  0  0  0
 19 20  1  0  0  0  0
 20 21  2  0  0  0  0
 22 27  2  0  0  0  0
 22 23  1  0  0  0  0
 23 24  2  0  0  0  0
 23 42  1  0  0  0  0
 24 25  1  0  0  0  0
 24 43  1  0  0  0  0
 25 30  1  0  0  0  0
 25 26  2  0  0  0  0
 26 27  1  0  0  0  0
 26 28  1  0  0  0  0
 27 44  1  0  0  0  0
 28 29  1  0  0  0  0
 29 30  1  0  0  0  0
 29 45  1  0  0  0  0
 29 46  1  0  0  0  0
M  END
$$$$
CHEMBL8410
  -OEChem-07121202283D

 57 60  0     1  0  0  0  0  0999 V2000
   -0.7240    0.7021    0.2203 C   0  0  0  0  0  0  0  0  0  0  0  0
   -0.3980   -0.7885    0.1070 C   0  0  0  0  0  0  0  0  0  0  0  0
    0.3974   -1.0239   -1.1006 N   0  0  0  0  0  0  0  0  0  0  0  0
   -0.0980   -1.3064   -2.3427 C   0  0  0  0  0  0  0  0  0  0  0  0
    1.0146   -1.4547   -3.1903 C   0  0  0  0  0  0  0  0  0  0  0  0
    2.1696   -1.2494   -2.4007 C   0  0  0  0  0  0  0  0  0  0  0  0
    1.7943   -0.9922   -1.1811 N   0  0  0  0  0  0  0  0  0  0  0  0
    0.8065   -1.7533   -4.5504 C   0  0  0  0  0  0  0  0  0  0  0  0
   -0.5200   -1.8896   -4.9966 C   0  0  0  0  0  0  0  0  0  0  0  0
   -1.5664   -1.7245   -4.0805 C   0  0  0  0  0  0  0  0  0  0  0  0
   -1.3331   -1.4465   -2.8197 N   0  0  0  0  0  0  0  0  0  0  0  0
   -0.8049   -2.2008   -6.4070 C   0  0  0  0  0  0  0  0  0  0  0  0
    0.1087   -2.4407   -7.1733 O   0  0  0  0  0  0  0  0  0  0  0  0
   -2.0779   -2.2199   -6.8491 N   0  0  0  0  0  0  0  0  0  0  0  0
   -2.3614   -2.5297   -8.2526 C   0  0  0  0  0  0  0  0  0  0  0  0
   -3.8723   -2.4850   -8.4897 C   0  0  2  0  0  0  0  0  0  0  0  0
   -4.3770   -3.1430   -7.7823 H   0  0  0  0  0  0  0  0  0  0  0  0
   -4.1890   -2.9277   -9.9343 C   0  0  0  0  0  0  0  0  0  0  0  0
   -5.3324   -1.9554  -10.3337 C   0  0  0  0  0  0  0  0  0  0  0  0
   -4.9097   -0.6750   -9.5704 C   0  0  0  0  0  0  0  0  0  0  0  0
   -4.3495   -1.1438   -8.3314 O   0  0  0  0  0  0  0  0  0  0  0  0
    1.8691   -1.9067   -5.4169 N   0  0  0  0  0  0  0  0  0  0  0  0
    3.2040   -2.2068   -4.8932 C   0  0  0  0  0  0  0  0  0  0  0  0
    4.1385   -2.5008   -6.0383 C   0  0  0  0  0  0  0  0  0  0  0  0
    4.2758   -3.7963   -6.5019 C   0  0  0  0  0  0  0  0  0  0  0  0
    5.1320   -4.0691   -7.5512 C   0  0  0  0  0  0  0  0  0  0  0  0
    5.8545   -3.0421   -8.1405 C   0  0  0  0  0  0  0  0  0  0  0  0
    5.7150   -1.7421   -7.6740 C   0  0  0  0  0  0  0  0  0  0  0  0
    4.8527   -1.4739   -6.6270 C   0  0  0  0  0  0  0  0  0  0  0  0
    6.6171   -0.4537   -8.4087 Cl  0  0  0  0  0  0  0  0  0  0  0  0
    6.6978   -3.3082   -9.1728 O   0  0  0  0  0  0  0  0  0  0  0  0
    6.7913   -4.6686   -9.5999 C   0  0  0  0  0  0  0  0  0  0  0  0
    0.2025    1.2733    0.2784 H   0  0  0  0  0  0  0  0  0  0  0  0
   -1.2911    1.0176   -0.6555 H   0  0  0  0  0  0  0  0  0  0  0  0
   -1.3158    0.8773    1.1188 H   0  0  0  0  0  0  0  0  0  0  0  0
    0.1691   -1.1040    0.9828 H   0  0  0  0  0  0  0  0  0  0  0  0
   -1.3245   -1.3597    0.0489 H   0  0  0  0  0  0  0  0  0  0  0  0
    3.1902   -1.2936   -2.7512 H   0  0  0  0  0  0  0  0  0  0  0  0
   -2.5867   -1.8283   -4.4189 H   0  0  0  0  0  0  0  0  0  0  0  0
   -2.8065   -2.0286   -6.2379 H   0  0  0  0  0  0  0  0  0  0  0  0
   -1.8714   -1.7960   -8.8927 H   0  0  0  0  0  0  0  0  0  0  0  0
   -1.9860   -3.5256   -8.4879 H   0  0  0  0  0  0  0  0  0  0  0  0
   -3.3216   -2.7926  -10.5804 H   0  0  0  0  0  0  0  0  0  0  0  0
   -4.5335   -3.9616   -9.9566 H   0  0  0  0  0  0  0  0  0  0  0  0
   -5.3450   -1.7849  -11.4102 H   0  0  0  0  0  0  0  0  0  0  0  0
   -6.2983   -2.3203   -9.9843 H   0  0  0  0  0  0  0  0  0  0  0  0
   -4.1613   -0.1244  -10.1404 H   0  0  0  0  0  0  0  0  0  0  0  0
   -5.7783   -0.0453   -9.3777 H   0  0  0  0  0  0  0  0  0  0  0  0
    1.7323   -1.8159   -6.3729 H   0  0  0  0  0  0  0  0  0  0  0  0
    3.5754   -1.3492   -4.3321 H   0  0  0  0  0  0  0  0  0  0  0  0
    3.1499   -3.0749   -4.2363 H   0  0  0  0  0  0  0  0  0  0  0  0
    3.7132   -4.5958   -6.0429 H   0  0  0  0  0  0  0  0  0  0  0  0
    5.2391   -5.0813   -7.9121 H   0  0  0  0  0  0  0  0  0  0  0  0
    4.7405   -0.4623   -6.2660 H   0  0  0  0  0  0  0  0  0  0  0  0
    7.1381   -5.2865   -8.7716 H   0  0  0  0  0  0  0  0  0  0  0  0
    5.8108   -5.0153   -9.9261 H   0  0  0  0  0  0  0  0  0  0  0  0
    7.4965   -4.7419  -10.4279 H   0  0  0  0  0  0  0  0  0  0  0  0
  1  2  1  0  0  0  0
  1 33  1  0  0  0  0
  1 34  1  0  0  0  0
  1 35  1  0  0  0  0
  2  3  1  0  0  0  0
  2 36  1  0  0  0  0
  2 37  1  0  0  0  0
  3  7  1  0  0  0  0
  3  4  1  0  0  0  0
  4 11  2  0  0  0  0
  4  5  1  0  0  0  0
  5  6  1  0  0  0  0
  5  8  2  0  0  0  0
  6  7  2  0  0  0  0
  6 38  1  0  0  0  0
  8  9  1  0  0  0  0
  8 22  1  0  0  0  0
  9 10  2  0  0  0  0
  9 12  1  0  0  0  0
 10 11  1  0  0  0  0
 10 39  1  0  0  0  0
 12 13  2  0  0  0  0
 12 14  1  0  0  0  0
 14 15  1  0  0  0  0
 14 40  1  0  0  0  0
 15 16  1  0  0  0  0
 15 41  1  0  0  0  0
 15 42  1  0  0  0  0
 16 17  1  0  0  0  0
 16 21  1  0  0  0  0
 16 18  1  0  0  0  0
 18 19  1  0  0  0  0
 18 43  1  0  0  0  0
 18 44  1  0  0  0  0
 19 20  1  0  0  0  0
 19 45  1  0  0  0  0
 19 46  1  0  0  0  0
 20 21  1  0  0  0  0
 20 47  1  0  0  0  0
 20 48  1  0  0  0  0
 22 23  1  0  0  0  0
 22 49  1  0  0  0  0
 23 24  1  0  0  0  0
 23 50  1  0  0  0  0
 23 51  1  0  0  0  0
 24 29  2  0  0  0  0
 24 25  1  0  0  0  0
 25 26  2  0  0  0  0
 25 52  1  0  0  0  0
 26 27  1  0  0  0  0
 26 53  1  0  0  0  0
 27 28  2  0  0  0  0
 27 31  1  0  0  0  0
 28 29  1  0  0  0  0
 28 30  1  0  0  0  0
 29 54  1  0  0  0  0
 31 32  1  0  0  0  0
 32 55  1  0  0  0  0
 32 56  1  0  0  0  0
 32 57  1  0  0  0  0
M  END
$$$$
CHEMBL209581
  -OEChem-07121202283D

 50 54  0     1  0  0  0  0  0999 V2000
   -0.0184    1.5028    0.0103 C   0  0  0  0  0  0  0  0  0  0  0  0
    0.0021   -0.0041    0.0020 C   0  0  0  0  0  0  0  0  0  0  0  0
   -0.0902   -0.6621   -1.1006 N   0  0  0  0  0  0  0  0  0  0  0  0
   -0.0559   -2.0631   -1.1220 N   0  0  0  0  0  0  0  0  0  0  0  0
   -0.4474   -2.7759   -0.0325 C   0  0  0  0  0  0  0  0  0  0  0  0
   -0.4955   -3.9879   -0.0481 O   0  0  0  0  0  0  0  0  0  0  0  0
   -0.8171   -1.9896    1.1884 C   0  0  2  0  0  0  0  0  0  0  0  0
    0.1368   -0.7813    1.2771 C   0  0  2  0  0  0  0  0  0  0  0  0
   -0.2673   -0.0254    2.5066 C   0  0  0  0  0  0  0  0  0  0  0  0
   -0.2735    1.2686    2.8147 C   0  0  0  0  0  0  0  0  0  0  0  0
   -0.7895    1.3985    4.1263 C   0  0  0  0  0  0  0  0  0  0  0  0
   -1.0734    0.1917    4.5798 N   0  0  0  0  0  0  0  0  0  0  0  0
   -0.7461   -0.7287    3.5952 N   0  0  0  0  0  0  0  0  0  0  0  0
   -0.8149   -2.1125    3.5816 C   0  0  0  0  0  0  0  0  0  0  0  0
   -0.8439   -2.7294    2.4304 N   0  0  0  0  0  0  0  0  0  0  0  0
   -0.8688   -2.8903    4.8712 C   0  0  0  0  0  0  0  0  0  0  0  0
   -0.9781    2.6717    4.8646 C   0  0  0  0  0  0  0  0  0  0  0  0
   -0.6407    3.8839    4.2658 C   0  0  0  0  0  0  0  0  0  0  0  0
   -0.8181    5.0651    4.9572 C   0  0  0  0  0  0  0  0  0  0  0  0
   -1.3293    5.0472    6.2424 C   0  0  0  0  0  0  0  0  0  0  0  0
   -1.6659    3.8468    6.8416 C   0  0  0  0  0  0  0  0  0  0  0  0
   -1.4985    2.6600    6.1572 C   0  0  0  0  0  0  0  0  0  0  0  0
    0.4037   -2.7628   -2.3243 C   0  0  0  0  0  0  0  0  0  0  0  0
   -0.7705   -3.0278   -3.2310 C   0  0  0  0  0  0  0  0  0  0  0  0
   -1.4941   -4.1984   -3.1005 C   0  0  0  0  0  0  0  0  0  0  0  0
   -2.5712   -4.4415   -3.9322 C   0  0  0  0  0  0  0  0  0  0  0  0
   -2.9249   -3.5138   -4.8941 C   0  0  0  0  0  0  0  0  0  0  0  0
   -2.2019   -2.3428   -5.0239 C   0  0  0  0  0  0  0  0  0  0  0  0
   -1.1274   -2.0978   -4.1894 C   0  0  0  0  0  0  0  0  0  0  0  0
    0.8710    1.8754    0.5186 H   0  0  0  0  0  0  0  0  0  0  0  0
   -0.0320    1.8716   -1.0153 H   0  0  0  0  0  0  0  0  0  0  0  0
   -0.9088    1.8512    0.5336 H   0  0  0  0  0  0  0  0  0  0  0  0
   -1.8183   -1.5905    1.0258 H   0  0  0  0  0  0  0  0  0  0  0  0
    1.1637   -1.1310    1.3835 H   0  0  0  0  0  0  0  0  0  0  0  0
    0.0564    2.0760    2.1777 H   0  0  0  0  0  0  0  0  0  0  0  0
   -1.9081   -3.0267    5.1701 H   0  0  0  0  0  0  0  0  0  0  0  0
   -0.4011   -3.8644    4.7279 H   0  0  0  0  0  0  0  0  0  0  0  0
   -0.3361   -2.3424    5.6485 H   0  0  0  0  0  0  0  0  0  0  0  0
   -0.2408    3.8990    3.2627 H   0  0  0  0  0  0  0  0  0  0  0  0
   -0.5570    6.0052    4.4941 H   0  0  0  0  0  0  0  0  0  0  0  0
   -1.4659    5.9738    6.7800 H   0  0  0  0  0  0  0  0  0  0  0  0
   -2.0647    3.8385    7.8453 H   0  0  0  0  0  0  0  0  0  0  0  0
   -1.7661    1.7237    6.6242 H   0  0  0  0  0  0  0  0  0  0  0  0
    1.1343   -2.1455   -2.8470 H   0  0  0  0  0  0  0  0  0  0  0  0
    0.8643   -3.7090   -2.0403 H   0  0  0  0  0  0  0  0  0  0  0  0
   -1.2177   -4.9232   -2.3491 H   0  0  0  0  0  0  0  0  0  0  0  0
   -3.1361   -5.3564   -3.8308 H   0  0  0  0  0  0  0  0  0  0  0  0
   -3.7660   -3.7041   -5.5443 H   0  0  0  0  0  0  0  0  0  0  0  0
   -2.4780   -1.6182   -5.7756 H   0  0  0  0  0  0  0  0  0  0  0  0
   -0.5648   -1.1812   -4.2884 H   0  0  0  0  0  0  0  0  0  0  0  0
  1  2  1  0  0  0  0
  1 30  1  0  0  0  0
  1 31  1  0  0  0  0
  1 32  1  0  0  0  0
  2  8  1  0  0  0  0
  2  3  2  0  0  0  0
  3  4  1  0  0  0  0
  4  5  1  0  0  0  0
  4 23  1  0  0  0  0
  5  6  2  0  0  0  0
  5  7  1  0  0  0  0
  7 15  1  0  0  0  0
  7  8  1  0  0  0  0
  7 33  1  0  0  0  0
  8  9  1  0  0  0  0
  8 34  1  0  0  0  0
  9 13  1  0  0  0  0
  9 10  2  0  0  0  0
 10 11  1  0  0  0  0
 10 35  1  0  0  0  0
 11 12  2  0  0  0  0
 11 17  1  0  0  0  0
 12 13  1  0  0  0  0
 13 14  1  0  0  0  0
 14 15  2  0  0  0  0
 14 16  1  0  0  0  0
 16 36  1  0  0  0  0
 16 37  1  0  0  0  0
 16 38  1  0  0  0  0
 17 22  2  0  0  0  0
 17 18  1  0  0  0  0
 18 19  2  0  0  0  0
 18 39  1  0  0  0  0
 19 20  1  0  0  0  0
 19 40  1  0  0  0  0
 20 21  2  0  0  0  0
 20 41  1  0  0  0  0
 21 22  1  0  0  0  0
 21 42  1  0  0  0  0
 22 43  1  0  0  0  0
 23 24  1  0  0  0  0
 23 44  1  0  0  0  0
 23 45  1  0  0  0  0
 24 29  2  0  0  0  0
 24 25  1  0  0  0  0
 25 26  2  0  0  0  0
 25 46  1  0  0  0  0
 26 27  1  0  0  0  0
 26 47  1  0  0  0  0
 27 28  2  0  0  0  0
 27 48  1  0  0  0  0
 28 29  1  0  0  0  0
 28 49  1  0  0  0  0
 29 50  1  0  0  0  0
M  END
$$$$
CHEMBL209581
  -OEChem-07121202283D

 50 54  0     1  0  0  0  0  0999 V2000
   -0.0184    1.5028    0.0103 C   0  0  0  0  0  0  0  0  0  0  0  0
    0.0021   -0.0041    0.0020 C   0  0  0  0  0  0  0  0  0  0  0  0
    0.0050   -0.6123   -1.1151 N   0  0  0  0  0  0  0  0  0  0  0  0
    0.0501   -2.0059   -1.1968 N   0  0  0  0  0  0  0  0  0  0  0  0
    0.3555   -2.7439   -0.1136 C   0  0  0  0  0  0  0  0  0  0  0  0
    0.3180   -3.9546   -0.1766 O   0  0  0  0  0  0  0  0  0  0  0  0
    0.7428   -2.0716    1.1754 C   0  0  2  0  0  0  0  0  0  0  0  0
    0.0245   -0.7367    1.3136 C   0  0  1  0  0  0  0  0  0  0  0  0
    0.7463    0.0946    2.3428 C   0  0  0  0  0  0  0  0  0  0  0  0
    0.2997    1.0725    3.1361 C   0  0  0  0  0  0  0  0  0  0  0  0
    1.3911    1.5320    3.9101 C   0  0  0  0  0  0  0  0  0  0  0  0
    2.4578    0.8303    3.5762 N   0  0  0  0  0  0  0  0  0  0  0  0
    2.0823   -0.0842    2.6004 N   0  0  0  0  0  0  0  0  0  0  0  0
    2.8163   -1.0529    1.9416 C   0  0  0  0  0  0  0  0  0  0  0  0
    2.1871   -1.9517    1.2722 N   0  0  0  0  0  0  0  0  0  0  0  0
    4.3213   -1.0567    2.0176 C   0  0  0  0  0  0  0  0  0  0  0  0
    1.3448    2.6163    4.9219 C   0  0  0  0  0  0  0  0  0  0  0  0
    0.1466    3.2777    5.1837 C   0  0  0  0  0  0  0  0  0  0  0  0
    0.1093    4.2855    6.1259 C   0  0  0  0  0  0  0  0  0  0  0  0
    1.2585    4.6398    6.8094 C   0  0  0  0  0  0  0  0  0  0  0  0
    2.4506    3.9866    6.5535 C   0  0  0  0  0  0  0  0  0  0  0  0
    2.4981    2.9731    5.6178 C   0  0  0  0  0  0  0  0  0  0  0  0
   -0.2375   -2.6692   -2.4710 C   0  0  0  0  0  0  0  0  0  0  0  0
   -1.7130   -2.9615   -2.5633 C   0  0  0  0  0  0  0  0  0  0  0  0
   -2.2116   -4.1592   -2.0860 C   0  0  0  0  0  0  0  0  0  0  0  0
   -3.5650   -4.4273   -2.1707 C   0  0  0  0  0  0  0  0  0  0  0  0
   -4.4200   -3.4975   -2.7323 C   0  0  0  0  0  0  0  0  0  0  0  0
   -3.9215   -2.2994   -3.2088 C   0  0  0  0  0  0  0  0  0  0  0  0
   -2.5687   -2.0295   -3.1203 C   0  0  0  0  0  0  0  0  0  0  0  0
    1.0042    1.8801    0.0026 H   0  0  0  0  0  0  0  0  0  0  0  0
   -0.5455    1.8639   -0.8728 H   0  0  0  0  0  0  0  0  0  0  0  0
   -0.5286    1.8543    0.9071 H   0  0  0  0  0  0  0  0  0  0  0  0
    0.4053   -2.7058    1.9951 H   0  0  0  0  0  0  0  0  0  0  0  0
   -0.9980   -0.9131    1.6476 H   0  0  0  0  0  0  0  0  0  0  0  0
   -0.7130    1.4456    3.1786 H   0  0  0  0  0  0  0  0  0  0  0  0
    4.6406   -1.6574    2.8692 H   0  0  0  0  0  0  0  0  0  0  0  0
    4.7304   -1.4804    1.1004 H   0  0  0  0  0  0  0  0  0  0  0  0
    4.6816   -0.0351    2.1381 H   0  0  0  0  0  0  0  0  0  0  0  0
   -0.7511    3.0024    4.6502 H   0  0  0  0  0  0  0  0  0  0  0  0
   -0.8189    4.7988    6.3297 H   0  0  0  0  0  0  0  0  0  0  0  0
    1.2249    5.4295    7.5453 H   0  0  0  0  0  0  0  0  0  0  0  0
    3.3450    4.2672    7.0900 H   0  0  0  0  0  0  0  0  0  0  0  0
    3.4284    2.4605    5.4222 H   0  0  0  0  0  0  0  0  0  0  0  0
    0.0561   -2.0178   -3.2941 H   0  0  0  0  0  0  0  0  0  0  0  0
    0.3221   -3.6027   -2.5291 H   0  0  0  0  0  0  0  0  0  0  0  0
   -1.5436   -4.8856   -1.6472 H   0  0  0  0  0  0  0  0  0  0  0  0
   -3.9544   -5.3633   -1.7984 H   0  0  0  0  0  0  0  0  0  0  0  0
   -5.4773   -3.7072   -2.7991 H   0  0  0  0  0  0  0  0  0  0  0  0
   -4.5895   -1.5731   -3.6479 H   0  0  0  0  0  0  0  0  0  0  0  0
   -2.1798   -1.0919   -3.4892 H   0  0  0  0  0  0  0  0  0  0  0  0
  1  2  1  0  0  0  0
  1 30  1  0  0  0  0
  1 31  1  0  0  0  0
  1 32  1  0  0  0  0
  2  8  1  0  0  0  0
  2  3  2  0  0  0  0
  3  4  1  0  0  0  0
  4  5  1  0  0  0  0
  4 23  1  0  0  0  0
  5  6  2  0  0  0  0
  5  7  1  0  0  0  0
  7 15  1  0  0  0  0
  7  8  1  0  0  0  0
  7 33  1  0  0  0  0
  8  9  1  0  0  0  0
  8 34  1  0  0  0  0
  9 13  1  0  0  0  0
  9 10  2  0  0  0  0
 10 11  1  0  0  0  0
 10 35  1  0  0  0  0
 11 12  2  0  0  0  0
 11 17  1  0  0  0  0
 12 13  1  0  0  0  0
 13 14  1  0  0  0  0
 14 15  2  0  0  0  0
 14 16  1  0  0  0  0
 16 36  1  0  0  0  0
 16 37  1  0  0  0  0
 16 38  1  0  0  0  0
 17 22  2  0  0  0  0
 17 18  1  0  0  0  0
 18 19  2  0  0  0  0
 18 39  1  0  0  0  0
 19 20  1  0  0  0  0
 19 40  1  0  0  0  0
 20 21  2  0  0  0  0
 20 41  1  0  0  0  0
 21 22  1  0  0  0  0
 21 42  1  0  0  0  0
 22 43  1  0  0  0  0
 23 24  1  0  0  0  0
 23 44  1  0  0  0  0
 23 45  1  0  0  0  0
 24 29  2  0  0  0  0
 24 25  1  0  0  0  0
 25 26  2  0  0  0  0
 25 46  1  0  0  0  0
 26 27  1  0  0  0  0
 26 47  1  0  0  0  0
 27 28  2  0  0  0  0
 27 48  1  0  0  0  0
 28 29  1  0  0  0  0
 28 49  1  0  0  0  0
 29 50  1  0  0  0  0
M  END
$$$$
CHEMBL209581
  -OEChem-07121202283D

 50 54  0     1  0  0  0  0  0999 V2000
   -0.0184    1.5028    0.0103 C   0  0  0  0  0  0  0  0  0  0  0  0
    0.0021   -0.0041    0.0020 C   0  0  0  0  0  0  0  0  0  0  0  0
    0.0050   -0.6123   -1.1151 N   0  0  0  0  0  0  0  0  0  0  0  0
   -0.0028   -2.0066   -1.1965 N   0  0  0  0  0  0  0  0  0  0  0  0
   -0.2776   -2.7525   -0.1104 C   0  0  0  0  0  0  0  0  0  0  0  0
   -0.2074   -3.9618   -0.1739 O   0  0  0  0  0  0  0  0  0  0  0  0
   -0.6709   -2.0909    1.1821 C   0  0  1  0  0  0  0  0  0  0  0  0
    0.0245   -0.7367    1.3136 C   0  0  2  0  0  0  0  0  0  0  0  0
   -0.7003    0.0749    2.3564 C   0  0  0  0  0  0  0  0  0  0  0  0
   -0.2656    1.0649    3.1414 C   0  0  0  0  0  0  0  0  0  0  0  0
   -1.3544    1.4943    3.9362 C   0  0  0  0  0  0  0  0  0  0  0  0
   -2.4075    0.7634    3.6225 N   0  0  0  0  0  0  0  0  0  0  0  0
   -2.0257   -0.1405    2.6394 N   0  0  0  0  0  0  0  0  0  0  0  0
   -2.7452   -1.1292    1.9944 C   0  0  0  0  0  0  0  0  0  0  0  0
   -2.1170   -2.0107    1.2925 N   0  0  0  0  0  0  0  0  0  0  0  0
   -4.2478   -1.1745    2.0994 C   0  0  0  0  0  0  0  0  0  0  0  0
   -1.3185    2.5792    4.9478 C   0  0  0  0  0  0  0  0  0  0  0  0
   -0.1369    3.2805    5.1795 C   0  0  0  0  0  0  0  0  0  0  0  0
   -0.1092    4.2886    6.1216 C   0  0  0  0  0  0  0  0  0  0  0  0
   -1.2514    4.6030    6.8357 C   0  0  0  0  0  0  0  0  0  0  0  0
   -2.4270    3.9101    6.6099 C   0  0  0  0  0  0  0  0  0  0  0  0
   -2.4678    2.9042    5.6657 C   0  0  0  0  0  0  0  0  0  0  0  0
    0.2899   -2.6620   -2.4736 C   0  0  0  0  0  0  0  0  0  0  0  0
   -0.9913   -2.8598   -3.2420 C   0  0  0  0  0  0  0  0  0  0  0  0
   -1.7263   -4.0185   -3.0739 C   0  0  0  0  0  0  0  0  0  0  0  0
   -2.9015   -4.1999   -3.7786 C   0  0  0  0  0  0  0  0  0  0  0  0
   -3.3421   -3.2224   -4.6512 C   0  0  0  0  0  0  0  0  0  0  0  0
   -2.6076   -2.0634   -4.8186 C   0  0  0  0  0  0  0  0  0  0  0  0
   -1.4346   -1.8801   -4.1106 C   0  0  0  0  0  0  0  0  0  0  0  0
    1.0042    1.8801    0.0026 H   0  0  0  0  0  0  0  0  0  0  0  0
   -0.5455    1.8639   -0.8728 H   0  0  0  0  0  0  0  0  0  0  0  0
   -0.5286    1.8543    0.9071 H   0  0  0  0  0  0  0  0  0  0  0  0
   -0.3086   -2.7156    1.9986 H   0  0  0  0  0  0  0  0  0  0  0  0
    1.0575   -0.8848    1.6282 H   0  0  0  0  0  0  0  0  0  0  0  0
    0.7372    1.4651    3.1654 H   0  0  0  0  0  0  0  0  0  0  0  0
   -4.6863   -0.5872    1.2926 H   0  0  0  0  0  0  0  0  0  0  0  0
   -4.5864   -2.2077    2.0221 H   0  0  0  0  0  0  0  0  0  0  0  0
   -4.5576   -0.7615    3.0594 H   0  0  0  0  0  0  0  0  0  0  0  0
    0.7557    3.0354    4.6230 H   0  0  0  0  0  0  0  0  0  0  0  0
    0.8061    4.8328    6.3020 H   0  0  0  0  0  0  0  0  0  0  0  0
   -1.2250    5.3921    7.5726 H   0  0  0  0  0  0  0  0  0  0  0  0
   -3.3159    4.1596    7.1703 H   0  0  0  0  0  0  0  0  0  0  0  0
   -3.3875    2.3671    5.4867 H   0  0  0  0  0  0  0  0  0  0  0  0
    0.9694   -2.0385   -3.0546 H   0  0  0  0  0  0  0  0  0  0  0  0
    0.7548   -3.6301   -2.2870 H   0  0  0  0  0  0  0  0  0  0  0  0
   -1.3820   -4.7821   -2.3921 H   0  0  0  0  0  0  0  0  0  0  0  0
   -3.4753   -5.1055   -3.6478 H   0  0  0  0  0  0  0  0  0  0  0  0
   -4.2599   -3.3645   -5.2024 H   0  0  0  0  0  0  0  0  0  0  0  0
   -2.9517   -1.2999   -5.5006 H   0  0  0  0  0  0  0  0  0  0  0  0
   -0.8627   -0.9729   -4.2386 H   0  0  0  0  0  0  0  0  0  0  0  0
  1  2  1  0  0  0  0
  1 30  1  0  0  0  0
  1 31  1  0  0  0  0
  1 32  1  0  0  0  0
  2  8  1  0  0  0  0
  2  3  2  0  0  0  0
  3  4  1  0  0  0  0
  4  5  1  0  0  0  0
  4 23  1  0  0  0  0
  5  6  2  0  0  0  0
  5  7  1  0  0  0  0
  7 15  1  0  0  0  0
  7  8  1  0  0  0  0
  7 33  1  0  0  0  0
  8  9  1  0  0  0  0
  8 34  1  0  0  0  0
  9 13  1  0  0  0  0
  9 10  2  0  0  0  0
 10 11  1  0  0  0  0
 10 35  1  0  0  0  0
 11 12  2  0  0  0  0
 11 17  1  0  0  0  0
 12 13  1  0  0  0  0
 13 14  1  0  0  0  0
 14 15  2  0  0  0  0
 14 16  1  0  0  0  0
 16 36  1  0  0  0  0
 16 37  1  0  0  0  0
 16 38  1  0  0  0  0
 17 22  2  0  0  0  0
 17 18  1  0  0  0  0
 18 19  2  0  0  0  0
 18 39  1  0  0  0  0
 19 20  1  0  0  0  0
 19 40  1  0  0  0  0
 20 21  2  0  0  0  0
 20 41  1  0  0  0  0
 21 22  1  0  0  0  0
 21 42  1  0  0  0  0
 22 43  1  0  0  0  0
 23 24  1  0  0  0  0
 23 44  1  0  0  0  0
 23 45  1  0  0  0  0
 24 29  2  0  0  0  0
 24 25  1  0  0  0  0
 25 26  2  0  0  0  0
 25 46  1  0  0  0  0
 26 27  1  0  0  0  0
 26 47  1  0  0  0  0
 27 28  2  0  0  0  0
 27 48  1  0  0  0  0
 28 29  1  0  0  0  0
 28 49  1  0  0  0  0
 29 50  1  0  0  0  0
M  END
$$$$
CHEMBL209581
  -OEChem-07121202283D

 50 54  0     1  0  0  0  0  0999 V2000
   -0.0184    1.5028    0.0103 C   0  0  0  0  0  0  0  0  0  0  0  0
    0.0021   -0.0041    0.0020 C   0  0  0  0  0  0  0  0  0  0  0  0
   -0.0902   -0.6621   -1.1006 N   0  0  0  0  0  0  0  0  0  0  0  0
   -0.0878   -2.0636   -1.1191 N   0  0  0  0  0  0  0  0  0  0  0  0
    0.5163   -2.7620   -0.1213 C   0  0  0  0  0  0  0  0  0  0  0  0
    0.5949   -3.9722   -0.1484 O   0  0  0  0  0  0  0  0  0  0  0  0
    1.0806   -1.9623    1.0135 C   0  0  1  0  0  0  0  0  0  0  0  0
    0.1368   -0.7813    1.2771 C   0  0  1  0  0  0  0  0  0  0  0  0
    0.7474   -0.0107    2.4083 C   0  0  0  0  0  0  0  0  0  0  0  0
    0.7755    1.2838    2.7131 C   0  0  0  0  0  0  0  0  0  0  0  0
    1.5296    1.4320    3.9017 C   0  0  0  0  0  0  0  0  0  0  0  0
    1.9297    0.2351    4.2890 N   0  0  0  0  0  0  0  0  0  0  0  0
    1.4461   -0.6970    3.3829 N   0  0  0  0  0  0  0  0  0  0  0  0
    1.5506   -2.0783    3.3525 C   0  0  0  0  0  0  0  0  0  0  0  0
    1.3548   -2.6975    2.2278 N   0  0  0  0  0  0  0  0  0  0  0  0
    1.8736   -2.8507    4.6056 C   0  0  0  0  0  0  0  0  0  0  0  0
    1.8210    2.7122    4.5929 C   0  0  0  0  0  0  0  0  0  0  0  0
    1.3321    3.9116    4.0788 C   0  0  0  0  0  0  0  0  0  0  0  0
    1.6063    5.0995    4.7258 C   0  0  0  0  0  0  0  0  0  0  0  0
    2.3651    5.1010    5.8823 C   0  0  0  0  0  0  0  0  0  0  0  0
    2.8529    3.9134    6.3971 C   0  0  0  0  0  0  0  0  0  0  0  0
    2.5797    2.7190    5.7618 C   0  0  0  0  0  0  0  0  0  0  0  0
   -0.7399   -2.7793   -2.2185 C   0  0  0  0  0  0  0  0  0  0  0  0
   -2.1821   -3.0364   -1.8652 C   0  0  0  0  0  0  0  0  0  0  0  0
   -2.5349   -4.1962   -1.2009 C   0  0  0  0  0  0  0  0  0  0  0  0
   -3.8578   -4.4320   -0.8768 C   0  0  0  0  0  0  0  0  0  0  0  0
   -4.8280   -3.5078   -1.2166 C   0  0  0  0  0  0  0  0  0  0  0  0
   -4.4752   -2.3476   -1.8802 C   0  0  0  0  0  0  0  0  0  0  0  0
   -3.1516   -2.1097   -2.2005 C   0  0  0  0  0  0  0  0  0  0  0  0
    0.9456    1.8773    0.3546 H   0  0  0  0  0  0  0  0  0  0  0  0
   -0.2114    1.8691   -0.9980 H   0  0  0  0  0  0  0  0  0  0  0  0
   -0.8041    1.8518    0.6803 H   0  0  0  0  0  0  0  0  0  0  0  0
    2.0235   -1.5355    0.6715 H   0  0  0  0  0  0  0  0  0  0  0  0
   -0.8402   -1.1599    1.5775 H   0  0  0  0  0  0  0  0  0  0  0  0
    0.3069    2.0797    2.1534 H   0  0  0  0  0  0  0  0  0  0  0  0
    0.9486   -3.1174    5.1166 H   0  0  0  0  0  0  0  0  0  0  0  0
    2.4182   -3.7577    4.3431 H   0  0  0  0  0  0  0  0  0  0  0  0
    2.4878   -2.2356    5.2633 H   0  0  0  0  0  0  0  0  0  0  0  0
    0.7402    3.9116    3.1755 H   0  0  0  0  0  0  0  0  0  0  0  0
    1.2279    6.0296    4.3281 H   0  0  0  0  0  0  0  0  0  0  0  0
    2.5778    6.0329    6.3850 H   0  0  0  0  0  0  0  0  0  0  0  0
    3.4448    3.9203    7.3004 H   0  0  0  0  0  0  0  0  0  0  0  0
    2.9570    1.7918    6.1672 H   0  0  0  0  0  0  0  0  0  0  0  0
   -0.6898   -2.1761   -3.1250 H   0  0  0  0  0  0  0  0  0  0  0  0
   -0.2319   -3.7291   -2.3857 H   0  0  0  0  0  0  0  0  0  0  0  0
   -1.7769   -4.9182   -0.9354 H   0  0  0  0  0  0  0  0  0  0  0  0
   -4.1335   -5.3384   -0.3584 H   0  0  0  0  0  0  0  0  0  0  0  0
   -5.8617   -3.6924   -0.9640 H   0  0  0  0  0  0  0  0  0  0  0  0
   -5.2332   -1.6257   -2.1460 H   0  0  0  0  0  0  0  0  0  0  0  0
   -2.8754   -1.2016   -2.7155 H   0  0  0  0  0  0  0  0  0  0  0  0
  1  2  1  0  0  0  0
  1 30  1  0  0  0  0
  1 31  1  0  0  0  0
  1 32  1  0  0  0  0
  2  8  1  0  0  0  0
  2  3  2  0  0  0  0
  3  4  1  0  0  0  0
  4  5  1  0  0  0  0
  4 23  1  0  0  0  0
  5  6  2  0  0  0  0
  5  7  1  0  0  0  0
  7 15  1  0  0  0  0
  7  8  1  0  0  0  0
  7 33  1  0  0  0  0
  8  9  1  0  0  0  0
  8 34  1  0  0  0  0
  9 13  1  0  0  0  0
  9 10  2  0  0  0  0
 10 11  1  0  0  0  0
 10 35  1  0  0  0  0
 11 12  2  0  0  0  0
 11 17  1  0  0  0  0
 12 13  1  0  0  0  0
 13 14  1  0  0  0  0
 14 15  2  0  0  0  0
 14 16  1  0  0  0  0
 16 36  1  0  0  0  0
 16 37  1  0  0  0  0
 16 38  1  0  0  0  0
 17 22  2  0  0  0  0
 17 18  1  0  0  0  0
 18 19  2  0  0  0  0
 18 39  1  0  0  0  0
 19 20  1  0  0  0  0
 19 40  1  0  0  0  0
 20 21  2  0  0  0  0
 20 41  1  0  0  0  0
 21 22  1  0  0  0  0
 21 42  1  0  0  0  0
 22 43  1  0  0  0  0
 23 24  1  0  0  0  0
 23 44  1  0  0  0  0
 23 45  1  0  0  0  0
 24 29  2  0  0  0  0
 24 25  1  0  0  0  0
 25 26  2  0  0  0  0
 25 46  1  0  0  0  0
 26 27  1  0  0  0  0
 26 47  1  0  0  0  0
 27 28  2  0  0  0  0
 27 48  1  0  0  0  0
 28 29  1  0  0  0  0
 28 49  1  0  0  0  0
 29 50  1  0  0  0  0
M  END
$$$$
CHEMBL158633
  -OEChem-07121202283D

 53 58  0     1  0  0  0  0  0999 V2000
   -0.0167    1.3781    0.0096 C   0  0  0  0  0  0  0  0  0  0  0  0
    1.1709    2.0855    0.0021 C   0  0  0  0  0  0  0  0  0  0  0  0
    2.3773    1.4107   -0.0130 C   0  0  0  0  0  0  0  0  0  0  0  0
    2.3960    0.0285   -0.0201 C   0  0  0  0  0  0  0  0  0  0  0  0
    1.2084   -0.6789   -0.0117 C   0  0  0  0  0  0  0  0  0  0  0  0
    0.0021   -0.0041    0.0020 C   0  0  0  0  0  0  0  0  0  0  0  0
    3.7112   -0.7071   -0.0376 C   0  0  0  0  0  0  0  0  0  0  0  0
    4.2568   -1.0108    1.6656 S   0  0  0  0  0  0  0  0  0  0  0  0
    4.5927    0.2165    2.2981 O   0  0  0  0  0  0  0  0  0  0  0  0
    3.3873   -1.9386    2.3000 O   0  0  0  0  0  0  0  0  0  0  0  0
    5.6959   -1.8160    1.5142 N   0  0  3  0  0  0  0  0  0  0  0  0
    5.8871   -3.2675    1.4283 C   0  0  0  0  0  0  0  0  0  0  0  0
    7.3683   -3.5227    1.2996 C   0  0  0  0  0  0  0  0  0  0  0  0
    8.0774   -4.7441    1.1839 C   0  0  0  0  0  0  0  0  0  0  0  0
    9.5439   -4.6849    1.0712 C   0  0  0  0  0  0  0  0  0  0  0  0
   10.3157   -5.8404    0.9530 C   0  0  0  0  0  0  0  0  0  0  0  0
   11.6751   -5.7385    0.8505 C   0  0  0  0  0  0  0  0  0  0  0  0
   12.2917   -4.4949    0.8631 C   0  0  0  0  0  0  0  0  0  0  0  0
   11.5475   -3.3416    0.9794 C   0  0  0  0  0  0  0  0  0  0  0  0
   10.1615   -3.4221    1.0846 C   0  0  0  0  0  0  0  0  0  0  0  0
    9.3883   -2.2920    1.2011 N   0  0  0  0  0  0  0  0  0  0  0  0
    8.0314   -2.3484    1.3051 C   0  0  0  0  0  0  0  0  0  0  0  0
    7.0328   -1.2198    1.4330 C   0  0  2  0  0  0  0  0  0  0  0  0
    7.3166   -0.4292    2.6842 C   0  0  0  0  0  0  0  0  0  0  0  0
    6.9244   -0.9217    3.9151 C   0  0  0  0  0  0  0  0  0  0  0  0
    7.1830   -0.2005    5.0657 C   0  0  0  0  0  0  0  0  0  0  0  0
    7.8359    1.0190    4.9876 C   0  0  0  0  0  0  0  0  0  0  0  0
    8.2309    1.5151    3.7477 C   0  0  0  0  0  0  0  0  0  0  0  0
    7.9736    0.7841    2.5992 C   0  0  0  0  0  0  0  0  0  0  0  0
    8.8469    2.7187    3.9355 O   0  0  0  0  0  0  0  0  0  0  0  0
    8.4627    3.1453    5.2560 C   0  0  0  0  0  0  0  0  0  0  0  0
    8.2045    1.9117    5.9522 O   0  0  0  0  0  0  0  0  0  0  0  0
    7.4898   -5.8133    1.1782 O   0  0  0  0  0  0  0  0  0  0  0  0
   -0.9591    1.9053    0.0259 H   0  0  0  0  0  0  0  0  0  0  0  0
    1.1563    3.1654    0.0076 H   0  0  0  0  0  0  0  0  0  0  0  0
    3.3051    1.9634   -0.0196 H   0  0  0  0  0  0  0  0  0  0  0  0
    1.2231   -1.7588   -0.0176 H   0  0  0  0  0  0  0  0  0  0  0  0
   -0.9258   -0.5567    0.0082 H   0  0  0  0  0  0  0  0  0  0  0  0
    3.5884   -1.6586   -0.5549 H   0  0  0  0  0  0  0  0  0  0  0  0
    4.4573   -0.1052   -0.5563 H   0  0  0  0  0  0  0  0  0  0  0  0
    5.5063   -3.7450    2.3311 H   0  0  0  0  0  0  0  0  0  0  0  0
    5.3669   -3.6581    0.5537 H   0  0  0  0  0  0  0  0  0  0  0  0
    9.8419   -6.8109    0.9430 H   0  0  0  0  0  0  0  0  0  0  0  0
   12.2740   -6.6326    0.7593 H   0  0  0  0  0  0  0  0  0  0  0  0
   13.3667   -4.4309    0.7812 H   0  0  0  0  0  0  0  0  0  0  0  0
   12.0370   -2.3789    0.9882 H   0  0  0  0  0  0  0  0  0  0  0  0
    7.0946   -0.5685    0.5611 H   0  0  0  0  0  0  0  0  0  0  0  0
    6.4147   -1.8718    3.9778 H   0  0  0  0  0  0  0  0  0  0  0  0
    6.8755   -0.5876    6.0259 H   0  0  0  0  0  0  0  0  0  0  0  0
    8.2827    1.1643    1.6368 H   0  0  0  0  0  0  0  0  0  0  0  0
    9.2759    3.6917    5.7337 H   0  0  0  0  0  0  0  0  0  0  0  0
    7.5616    3.7571    5.2138 H   0  0  0  0  0  0  0  0  0  0  0  0
    9.8235   -1.4251    1.2095 H   0  0  0  0  0  0  0  0  0  0  0  0
  1  6  2  0  0  0  0
  1  2  1  0  0  0  0
  1 34  1  0  0  0  0
  2  3  2  0  0  0  0
  2 35  1  0  0  0  0
  3  4  1  0  0  0  0
  3 36  1  0  0  0  0
  4  5  2  0  0  0  0
  4  7  1  0  0  0  0
  5  6  1  0  0  0  0
  5 37  1  0  0  0  0
  6 38  1  0  0  0  0
  7  8  1  0  0  0  0
  7 39  1  0  0  0  0
  7 40  1  0  0  0  0
  8  9  2  0  0  0  0
  8 10  2  0  0  0  0
  8 11  1  0  0  0  0
 11 23  1  0  0  0  0
 11 12  1  0  0  0  0
 12 13  1  0  0  0  0
 12 41  1  0  0  0  0
 12 42  1  0  0  0  0
 13 22  2  0  0  0  0
 13 14  1  0  0  0  0
 14 15  1  0  0  0  0
 14 33  2  0  0  0  0
 15 20  2  0  0  0  0
 15 16  1  0  0  0  0
 16 17  2  0  0  0  0
 16 43  1  0  0  0  0
 17 18  1  0  0  0  0
 17 44  1  0  0  0  0
 18 19  2  0  0  0  0
 18 45  1  0  0  0  0
 19 20  1  0  0  0  0
 19 46  1  0  0  0  0
 20 21  1  0  0  0  0
 21 22  1  0  0  0  0
 21 53  1  0  0  0  0
 22 23  1  0  0  0  0
 23 24  1  0  0  0  0
 23 47  1  0  0  0  0
 24 29  2  0  0  0  0
 24 25  1  0  0  0  0
 25 26  2  0  0  0  0
 25 48  1  0  0  0  0
 26 27  1  0  0  0  0
 26 49  1  0  0  0  0
 27 32  1  0  0  0  0
 27 28  2  0  0  0  0
 28 29  1  0  0  0  0
 28 30  1  0  0  0  0
 29 50  1  0  0  0  0
 30 31  1  0  0  0  0
 31 32  1  0  0  0  0
 31 51  1  0  0  0  0
 31 52  1  0  0  0  0
M  END
$$$$
CHEMBL158633
  -OEChem-07121202283D

 53 58  0     1  0  0  0  0  0999 V2000
   -0.0167    1.3781    0.0096 C   0  0  0  0  0  0  0  0  0  0  0  0
    1.1709    2.0855    0.0021 C   0  0  0  0  0  0  0  0  0  0  0  0
    2.3773    1.4107   -0.0130 C   0  0  0  0  0  0  0  0  0  0  0  0
    2.3960    0.0285   -0.0201 C   0  0  0  0  0  0  0  0  0  0  0  0
    1.2084   -0.6789   -0.0117 C   0  0  0  0  0  0  0  0  0  0  0  0
    0.0021   -0.0041    0.0020 C   0  0  0  0  0  0  0  0  0  0  0  0
    3.7112   -0.7071   -0.0376 C   0  0  0  0  0  0  0  0  0  0  0  0
    4.2568   -1.0108    1.6656 S   0  0  0  0  0  0  0  0  0  0  0  0
    4.5927    0.2165    2.2981 O   0  0  0  0  0  0  0  0  0  0  0  0
    3.3873   -1.9386    2.3000 O   0  0  0  0  0  0  0  0  0  0  0  0
    5.6959   -1.8160    1.5142 N   0  0  3  0  0  0  0  0  0  0  0  0
    5.8871   -3.2675    1.4283 C   0  0  0  0  0  0  0  0  0  0  0  0
    7.3683   -3.5227    1.2996 C   0  0  0  0  0  0  0  0  0  0  0  0
    8.0774   -4.7441    1.1839 C   0  0  0  0  0  0  0  0  0  0  0  0
    9.5439   -4.6849    1.0712 C   0  0  0  0  0  0  0  0  0  0  0  0
   10.3157   -5.8404    0.9530 C   0  0  0  0  0  0  0  0  0  0  0  0
   11.6751   -5.7385    0.8505 C   0  0  0  0  0  0  0  0  0  0  0  0
   12.2917   -4.4949    0.8631 C   0  0  0  0  0  0  0  0  0  0  0  0
   11.5475   -3.3416    0.9794 C   0  0  0  0  0  0  0  0  0  0  0  0
   10.1615   -3.4221    1.0846 C   0  0  0  0  0  0  0  0  0  0  0  0
    9.3883   -2.2920    1.2011 N   0  0  0  0  0  0  0  0  0  0  0  0
    8.0314   -2.3484    1.3051 C   0  0  0  0  0  0  0  0  0  0  0  0
    7.0328   -1.2198    1.4330 C   0  0  1  0  0  0  0  0  0  0  0  0
    7.1183   -0.3193    0.2276 C   0  0  0  0  0  0  0  0  0  0  0  0
    6.5208   -0.6982   -0.9602 C   0  0  0  0  0  0  0  0  0  0  0  0
    6.5961    0.1245   -2.0685 C   0  0  0  0  0  0  0  0  0  0  0  0
    7.2716    1.3317   -1.9913 C   0  0  0  0  0  0  0  0  0  0  0  0
    7.8735    1.7134   -0.7948 C   0  0  0  0  0  0  0  0  0  0  0  0
    7.7891    0.8863    0.3135 C   0  0  0  0  0  0  0  0  0  0  0  0
    8.4685    2.9287   -0.9740 O   0  0  0  0  0  0  0  0  0  0  0  0
    8.5749    3.0981   -2.4000 C   0  0  0  0  0  0  0  0  0  0  0  0
    7.4894    2.3079   -2.9201 O   0  0  0  0  0  0  0  0  0  0  0  0
    7.4898   -5.8133    1.1782 O   0  0  0  0  0  0  0  0  0  0  0  0
   -0.9591    1.9053    0.0259 H   0  0  0  0  0  0  0  0  0  0  0  0
    1.1563    3.1654    0.0076 H   0  0  0  0  0  0  0  0  0  0  0  0
    3.3051    1.9634   -0.0196 H   0  0  0  0  0  0  0  0  0  0  0  0
    1.2231   -1.7588   -0.0176 H   0  0  0  0  0  0  0  0  0  0  0  0
   -0.9258   -0.5567    0.0082 H   0  0  0  0  0  0  0  0  0  0  0  0
    3.5884   -1.6586   -0.5549 H   0  0  0  0  0  0  0  0  0  0  0  0
    4.4573   -0.1052   -0.5563 H   0  0  0  0  0  0  0  0  0  0  0  0
    5.5063   -3.7450    2.3311 H   0  0  0  0  0  0  0  0  0  0  0  0
    5.3669   -3.6581    0.5537 H   0  0  0  0  0  0  0  0  0  0  0  0
    9.8419   -6.8109    0.9430 H   0  0  0  0  0  0  0  0  0  0  0  0
   12.2740   -6.6326    0.7593 H   0  0  0  0  0  0  0  0  0  0  0  0
   13.3667   -4.4309    0.7812 H   0  0  0  0  0  0  0  0  0  0  0  0
   12.0370   -2.3789    0.9882 H   0  0  0  0  0  0  0  0  0  0  0  0
    7.2381   -0.6480    2.3380 H   0  0  0  0  0  0  0  0  0  0  0  0
    5.9944   -1.6392   -1.0224 H   0  0  0  0  0  0  0  0  0  0  0  0
    6.1284   -0.1740   -2.9951 H   0  0  0  0  0  0  0  0  0  0  0  0
    8.2510    1.1818    1.2440 H   0  0  0  0  0  0  0  0  0  0  0  0
    8.4500    4.1463   -2.6715 H   0  0  0  0  0  0  0  0  0  0  0  0
    9.5313    2.7194   -2.7603 H   0  0  0  0  0  0  0  0  0  0  0  0
    9.8235   -1.4251    1.2095 H   0  0  0  0  0  0  0  0  0  0  0  0
  1  6  2  0  0  0  0
  1  2  1  0  0  0  0
  1 34  1  0  0  0  0
  2  3  2  0  0  0  0
  2 35  1  0  0  0  0
  3  4  1  0  0  0  0
  3 36  1  0  0  0  0
  4  5  2  0  0  0  0
  4  7  1  0  0  0  0
  5  6  1  0  0  0  0
  5 37  1  0  0  0  0
  6 38  1  0  0  0  0
  7  8  1  0  0  0  0
  7 39  1  0  0  0  0
  7 40  1  0  0  0  0
  8  9  2  0  0  0  0
  8 10  2  0  0  0  0
  8 11  1  0  0  0  0
 11 23  1  0  0  0  0
 11 12  1  0  0  0  0
 12 13  1  0  0  0  0
 12 41  1  0  0  0  0
 12 42  1  0  0  0  0
 13 22  2  0  0  0  0
 13 14  1  0  0  0  0
 14 15  1  0  0  0  0
 14 33  2  0  0  0  0
 15 20  2  0  0  0  0
 15 16  1  0  0  0  0
 16 17  2  0  0  0  0
 16 43  1  0  0  0  0
 17 18  1  0  0  0  0
 17 44  1  0  0  0  0
 18 19  2  0  0  0  0
 18 45  1  0  0  0  0
 19 20  1  0  0  0  0
 19 46  1  0  0  0  0
 20 21  1  0  0  0  0
 21 22  1  0  0  0  0
 21 53  1  0  0  0  0
 22 23  1  0  0  0  0
 23 24  1  0  0  0  0
 23 47  1  0  0  0  0
 24 29  2  0  0  0  0
 24 25  1  0  0  0  0
 25 26  2  0  0  0  0
 25 48  1  0  0  0  0
 26 27  1  0  0  0  0
 26 49  1  0  0  0  0
 27 32  1  0  0  0  0
 27 28  2  0  0  0  0
 28 29  1  0  0  0  0
 28 30  1  0  0  0  0
 29 50  1  0  0  0  0
 30 31  1  0  0  0  0
 31 32  1  0  0  0  0
 31 51  1  0  0  0  0
 31 52  1  0  0  0  0
M  END
$$$$
CHEMBL157701
  -OEChem-07121202283D

 52 57  0     1  0  0  0  0  0999 V2000
   -0.0167    1.3781    0.0096 C   0  0  0  0  0  0  0  0  0  0  0  0
    1.1709    2.0855    0.0021 C   0  0  0  0  0  0  0  0  0  0  0  0
    2.3773    1.4107   -0.0130 C   0  0  0  0  0  0  0  0  0  0  0  0
    2.3960    0.0285   -0.0201 C   0  0  0  0  0  0  0  0  0  0  0  0
    1.2084   -0.6789   -0.0117 C   0  0  0  0  0  0  0  0  0  0  0  0
    0.0021   -0.0041    0.0020 C   0  0  0  0  0  0  0  0  0  0  0  0
    3.7112   -0.7071   -0.0376 C   0  0  0  0  0  0  0  0  0  0  0  0
    4.1644   -0.9594    1.3773 C   0  0  0  0  0  0  0  0  0  0  0  0
    3.4863   -0.5793    2.3082 O   0  0  0  0  0  0  0  0  0  0  0  0
    5.3234   -1.6075    1.6082 N   0  0  0  0  0  0  0  0  0  0  0  0
    6.2580   -2.1238    0.6029 C   0  0  0  0  0  0  0  0  0  0  0  0
    7.4063   -2.7675    1.3398 C   0  0  0  0  0  0  0  0  0  0  0  0
    8.5656   -3.4109    0.8399 C   0  0  0  0  0  0  0  0  0  0  0  0
    9.5298   -3.9525    1.8113 C   0  0  0  0  0  0  0  0  0  0  0  0
   10.6956   -4.5992    1.4020 C   0  0  0  0  0  0  0  0  0  0  0  0
   11.5635   -5.0865    2.3391 C   0  0  0  0  0  0  0  0  0  0  0  0
   11.2930   -4.9424    3.6930 C   0  0  0  0  0  0  0  0  0  0  0  0
   10.1470   -4.3073    4.1180 C   0  0  0  0  0  0  0  0  0  0  0  0
    9.2493   -3.8028    3.1807 C   0  0  0  0  0  0  0  0  0  0  0  0
    8.0970   -3.1629    3.5694 N   0  0  0  0  0  0  0  0  0  0  0  0
    7.2058   -2.6621    2.6692 C   0  0  0  0  0  0  0  0  0  0  0  0
    5.9046   -1.9315    2.9146 C   0  0  2  0  0  0  0  0  0  0  0  0
    4.9620   -2.8174    3.6876 C   0  0  0  0  0  0  0  0  0  0  0  0
    4.2773   -3.8283    3.0389 C   0  0  0  0  0  0  0  0  0  0  0  0
    3.4120   -4.6439    3.7438 C   0  0  0  0  0  0  0  0  0  0  0  0
    3.2285   -4.4495    5.1032 C   0  0  0  0  0  0  0  0  0  0  0  0
    3.9182   -3.4313    5.7567 C   0  0  0  0  0  0  0  0  0  0  0  0
    4.7882   -2.6213    5.0449 C   0  0  0  0  0  0  0  0  0  0  0  0
    3.5695   -3.4453    7.0763 O   0  0  0  0  0  0  0  0  0  0  0  0
    2.3551   -4.2159    7.1449 C   0  0  0  0  0  0  0  0  0  0  0  0
    2.4478   -5.1016    6.0135 O   0  0  0  0  0  0  0  0  0  0  0  0
    8.7587   -3.5133   -0.3605 O   0  0  0  0  0  0  0  0  0  0  0  0
   -0.9591    1.9053    0.0259 H   0  0  0  0  0  0  0  0  0  0  0  0
    1.1563    3.1654    0.0076 H   0  0  0  0  0  0  0  0  0  0  0  0
    3.3051    1.9634   -0.0196 H   0  0  0  0  0  0  0  0  0  0  0  0
    1.2231   -1.7588   -0.0176 H   0  0  0  0  0  0  0  0  0  0  0  0
   -0.9258   -0.5567    0.0082 H   0  0  0  0  0  0  0  0  0  0  0  0
    3.5884   -1.6586   -0.5549 H   0  0  0  0  0  0  0  0  0  0  0  0
    4.4573   -0.1052   -0.5563 H   0  0  0  0  0  0  0  0  0  0  0  0
    5.7579   -2.8638   -0.0219 H   0  0  0  0  0  0  0  0  0  0  0  0
    6.6271   -1.3047   -0.0145 H   0  0  0  0  0  0  0  0  0  0  0  0
   10.9115   -4.7148    0.3502 H   0  0  0  0  0  0  0  0  0  0  0  0
   12.4666   -5.5879    2.0235 H   0  0  0  0  0  0  0  0  0  0  0  0
   11.9886   -5.3329    4.4211 H   0  0  0  0  0  0  0  0  0  0  0  0
    9.9459   -4.2004    5.1737 H   0  0  0  0  0  0  0  0  0  0  0  0
    6.0930   -1.0145    3.4729 H   0  0  0  0  0  0  0  0  0  0  0  0
    4.4185   -3.9808    1.9791 H   0  0  0  0  0  0  0  0  0  0  0  0
    2.8784   -5.4328    3.2345 H   0  0  0  0  0  0  0  0  0  0  0  0
    5.3278   -1.8338    5.5500 H   0  0  0  0  0  0  0  0  0  0  0  0
    2.3142   -4.7844    8.0740 H   0  0  0  0  0  0  0  0  0  0  0  0
    1.4841   -3.5670    7.0531 H   0  0  0  0  0  0  0  0  0  0  0  0
    7.9121   -3.0645    4.5165 H   0  0  0  0  0  0  0  0  0  0  0  0
  1  6  2  0  0  0  0
  1  2  1  0  0  0  0
  1 33  1  0  0  0  0
  2  3  2  0  0  0  0
  2 34  1  0  0  0  0
  3  4  1  0  0  0  0
  3 35  1  0  0  0  0
  4  5  2  0  0  0  0
  4  7  1  0  0  0  0
  5  6  1  0  0  0  0
  5 36  1  0  0  0  0
  6 37  1  0  0  0  0
  7  8  1  0  0  0  0
  7 38  1  0  0  0  0
  7 39  1  0  0  0  0
  8  9  2  0  0  0  0
  8 10  1  0  0  0  0
 10 22  1  0  0  0  0
 10 11  1  0  0  0  0
 11 12  1  0  0  0  0
 11 40  1  0  0  0  0
 11 41  1  0  0  0  0
 12 21  2  0  0  0  0
 12 13  1  0  0  0  0
 13 14  1  0  0  0  0
 13 32  2  0  0  0  0
 14 19  2  0  0  0  0
 14 15  1  0  0  0  0
 15 16  2  0  0  0  0
 15 42  1  0  0  0  0
 16 17  1  0  0  0  0
 16 43  1  0  0  0  0
 17 18  2  0  0  0  0
 17 44  1  0  0  0  0
 18 19  1  0  0  0  0
 18 45  1  0  0  0  0
 19 20  1  0  0  0  0
 20 21  1  0  0  0  0
 20 52  1  0  0  0  0
 21 22  1  0  0  0  0
 22 23  1  0  0  0  0
 22 46  1  0  0  0  0
 23 28  2  0  0  0  0
 23 24  1  0  0  0  0
 24 25  2  0  0  0  0
 24 47  1  0  0  0  0
 25 26  1  0  0  0  0
 25 48  1  0  0  0  0
 26 31  1  0  0  0  0
 26 27  2  0  0  0  0
 27 28  1  0  0  0  0
 27 29  1  0  0  0  0
 28 49  1  0  0  0  0
 29 30  1  0  0  0  0
 30 31  1  0  0  0  0
 30 50  1  0  0  0  0
 30 51  1  0  0  0  0
M  END
$$$$
CHEMBL157701
  -OEChem-07121202283D

 52 57  0     1  0  0  0  0  0999 V2000
   -0.0167    1.3781    0.0096 C   0  0  0  0  0  0  0  0  0  0  0  0
    1.1709    2.0855    0.0021 C   0  0  0  0  0  0  0  0  0  0  0  0
    2.3773    1.4107   -0.0130 C   0  0  0  0  0  0  0  0  0  0  0  0
    2.3960    0.0285   -0.0201 C   0  0  0  0  0  0  0  0  0  0  0  0
    1.2084   -0.6789   -0.0117 C   0  0  0  0  0  0  0  0  0  0  0  0
    0.0021   -0.0041    0.0020 C   0  0  0  0  0  0  0  0  0  0  0  0
    3.7112   -0.7071   -0.0376 C   0  0  0  0  0  0  0  0  0  0  0  0
    4.1644   -0.9594    1.3773 C   0  0  0  0  0  0  0  0  0  0  0  0
    3.4863   -0.5793    2.3082 O   0  0  0  0  0  0  0  0  0  0  0  0
    5.3234   -1.6075    1.6082 N   0  0  0  0  0  0  0  0  0  0  0  0
    6.2580   -2.1238    0.6029 C   0  0  0  0  0  0  0  0  0  0  0  0
    7.4063   -2.7675    1.3398 C   0  0  0  0  0  0  0  0  0  0  0  0
    8.5656   -3.4109    0.8399 C   0  0  0  0  0  0  0  0  0  0  0  0
    9.5298   -3.9525    1.8113 C   0  0  0  0  0  0  0  0  0  0  0  0
   10.6956   -4.5992    1.4020 C   0  0  0  0  0  0  0  0  0  0  0  0
   11.5635   -5.0865    2.3391 C   0  0  0  0  0  0  0  0  0  0  0  0
   11.2930   -4.9424    3.6930 C   0  0  0  0  0  0  0  0  0  0  0  0
   10.1470   -4.3073    4.1180 C   0  0  0  0  0  0  0  0  0  0  0  0
    9.2493   -3.8028    3.1807 C   0  0  0  0  0  0  0  0  0  0  0  0
    8.0970   -3.1629    3.5694 N   0  0  0  0  0  0  0  0  0  0  0  0
    7.2058   -2.6621    2.6692 C   0  0  0  0  0  0  0  0  0  0  0  0
    5.9046   -1.9315    2.9146 C   0  0  1  0  0  0  0  0  0  0  0  0
    6.1651   -0.6637    3.6865 C   0  0  0  0  0  0  0  0  0  0  0  0
    6.6557    0.4524    3.0345 C   0  0  0  0  0  0  0  0  0  0  0  0
    6.8959    1.6178    3.7381 C   0  0  0  0  0  0  0  0  0  0  0  0
    6.6455    1.6697    5.0998 C   0  0  0  0  0  0  0  0  0  0  0  0
    6.1513    0.5454    5.7566 C   0  0  0  0  0  0  0  0  0  0  0  0
    5.9076   -0.6174    5.0439 C   0  0  0  0  0  0  0  0  0  0  0  0
    5.9904    0.8477    7.0779 O   0  0  0  0  0  0  0  0  0  0  0  0
    6.7738    2.0355    7.2988 C   0  0  0  0  0  0  0  0  0  0  0  0
    6.7941    2.6764    6.0096 O   0  0  0  0  0  0  0  0  0  0  0  0
    8.7587   -3.5133   -0.3605 O   0  0  0  0  0  0  0  0  0  0  0  0
   -0.9591    1.9053    0.0259 H   0  0  0  0  0  0  0  0  0  0  0  0
    1.1563    3.1654    0.0076 H   0  0  0  0  0  0  0  0  0  0  0  0
    3.3051    1.9634   -0.0196 H   0  0  0  0  0  0  0  0  0  0  0  0
    1.2231   -1.7588   -0.0176 H   0  0  0  0  0  0  0  0  0  0  0  0
   -0.9258   -0.5567    0.0082 H   0  0  0  0  0  0  0  0  0  0  0  0
    3.5884   -1.6586   -0.5549 H   0  0  0  0  0  0  0  0  0  0  0  0
    4.4573   -0.1052   -0.5563 H   0  0  0  0  0  0  0  0  0  0  0  0
    5.7579   -2.8638   -0.0219 H   0  0  0  0  0  0  0  0  0  0  0  0
    6.6271   -1.3047   -0.0145 H   0  0  0  0  0  0  0  0  0  0  0  0
   10.9115   -4.7148    0.3502 H   0  0  0  0  0  0  0  0  0  0  0  0
   12.4666   -5.5879    2.0235 H   0  0  0  0  0  0  0  0  0  0  0  0
   11.9886   -5.3329    4.4211 H   0  0  0  0  0  0  0  0  0  0  0  0
    9.9459   -4.2004    5.1737 H   0  0  0  0  0  0  0  0  0  0  0  0
    5.2228   -2.5723    3.4737 H   0  0  0  0  0  0  0  0  0  0  0  0
    6.8522    0.4135    1.9732 H   0  0  0  0  0  0  0  0  0  0  0  0
    7.2791    2.4881    3.2262 H   0  0  0  0  0  0  0  0  0  0  0  0
    5.5202   -1.4894    5.5498 H   0  0  0  0  0  0  0  0  0  0  0  0
    6.2956    2.6777    8.0383 H   0  0  0  0  0  0  0  0  0  0  0  0
    7.7845    1.7747    7.6128 H   0  0  0  0  0  0  0  0  0  0  0  0
    7.9121   -3.0645    4.5165 H   0  0  0  0  0  0  0  0  0  0  0  0
  1  6  2  0  0  0  0
  1  2  1  0  0  0  0
  1 33  1  0  0  0  0
  2  3  2  0  0  0  0
  2 34  1  0  0  0  0
  3  4  1  0  0  0  0
  3 35  1  0  0  0  0
  4  5  2  0  0  0  0
  4  7  1  0  0  0  0
  5  6  1  0  0  0  0
  5 36  1  0  0  0  0
  6 37  1  0  0  0  0
  7  8  1  0  0  0  0
  7 38  1  0  0  0  0
  7 39  1  0  0  0  0
  8  9  2  0  0  0  0
  8 10  1  0  0  0  0
 10 22  1  0  0  0  0
 10 11  1  0  0  0  0
 11 12  1  0  0  0  0
 11 40  1  0  0  0  0
 11 41  1  0  0  0  0
 12 21  2  0  0  0  0
 12 13  1  0  0  0  0
 13 14  1  0  0  0  0
 13 32  2  0  0  0  0
 14 19  2  0  0  0  0
 14 15  1  0  0  0  0
 15 16  2  0  0  0  0
 15 42  1  0  0  0  0
 16 17  1  0  0  0  0
 16 43  1  0  0  0  0
 17 18  2  0  0  0  0
 17 44  1  0  0  0  0
 18 19  1  0  0  0  0
 18 45  1  0  0  0  0
 19 20  1  0  0  0  0
 20 21  1  0  0  0  0
 20 52  1  0  0  0  0
 21 22  1  0  0  0  0
 22 23  1  0  0  0  0
 22 46  1  0  0  0  0
 23 28  2  0  0  0  0
 23 24  1  0  0  0  0
 24 25  2  0  0  0  0
 24 47  1  0  0  0  0
 25 26  1  0  0  0  0
 25 48  1  0  0  0  0
 26 31  1  0  0  0  0
 26 27  2  0  0  0  0
 27 28  1  0  0  0  0
 27 29  1  0  0  0  0
 28 49  1  0  0  0  0
 29 30  1  0  0  0  0
 30 31  1  0  0  0  0
 30 50  1  0  0  0  0
 30 51  1  0  0  0  0
M  END
$$$$
CHEMBL422006
  -OEChem-07121202283D

 54 59  0     1  0  0  0  0  0999 V2000
    0.4077    1.8433    0.9536 C   0  0  0  0  0  0  0  0  0  0  0  0
    1.6386    2.4747    0.9617 C   0  0  0  0  0  0  0  0  0  0  0  0
    2.7962    1.7377    0.8184 C   0  0  0  0  0  0  0  0  0  0  0  0
    2.7235    0.3527    0.6655 C   0  0  0  0  0  0  0  0  0  0  0  0
    1.4789   -0.2781    0.6586 C   0  0  0  0  0  0  0  0  0  0  0  0
    0.3287    0.4704    0.8024 C   0  0  0  0  0  0  0  0  0  0  0  0
    3.9596   -0.4429    0.5110 C   0  0  0  0  0  0  0  0  0  0  0  0
    3.8873   -1.7586    0.3659 C   0  0  0  0  0  0  0  0  0  0  0  0
    5.1475   -2.5698    0.2084 C   0  0  0  0  0  0  0  0  0  0  0  0
    5.1821   -3.6243    1.2306 N   0  0  2  0  0  0  0  0  0  0  0  0
    5.6690   -3.0935    2.5242 C   0  0  0  0  0  0  0  0  0  0  0  0
    6.4374   -4.2290    3.1628 C   0  0  0  0  0  0  0  0  0  0  0  0
    6.8410   -4.4296    4.5036 C   0  0  0  0  0  0  0  0  0  0  0  0
    7.5895   -5.6568    4.8233 C   0  0  0  0  0  0  0  0  0  0  0  0
    8.0218   -5.9320    6.1203 C   0  0  0  0  0  0  0  0  0  0  0  0
    8.7145   -7.0832    6.3727 C   0  0  0  0  0  0  0  0  0  0  0  0
    8.9902   -7.9789    5.3486 C   0  0  0  0  0  0  0  0  0  0  0  0
    8.5716   -7.7261    4.0608 C   0  0  0  0  0  0  0  0  0  0  0  0
    7.8641   -6.5599    3.7814 C   0  0  0  0  0  0  0  0  0  0  0  0
    7.4299   -6.2778    2.5076 N   0  0  0  0  0  0  0  0  0  0  0  0
    6.7380   -5.1448    2.2144 C   0  0  0  0  0  0  0  0  0  0  0  0
    6.1816   -4.6613    0.8892 C   0  0  2  0  0  0  0  0  0  0  0  0
    7.2819   -4.0672    0.0481 C   0  0  0  0  0  0  0  0  0  0  0  0
    8.0085   -2.9911    0.5229 C   0  0  0  0  0  0  0  0  0  0  0  0
    9.0191   -2.4430   -0.2447 C   0  0  0  0  0  0  0  0  0  0  0  0
    9.3059   -2.9712   -1.4930 C   0  0  0  0  0  0  0  0  0  0  0  0
    8.5739   -4.0552   -1.9712 C   0  0  0  0  0  0  0  0  0  0  0  0
    7.5663   -4.6031   -1.1940 C   0  0  0  0  0  0  0  0  0  0  0  0
    9.0430   -4.3860   -3.2097 O   0  0  0  0  0  0  0  0  0  0  0  0
    9.7926   -3.2403   -3.6555 C   0  0  0  0  0  0  0  0  0  0  0  0
   10.2336   -2.6229   -2.4317 O   0  0  0  0  0  0  0  0  0  0  0  0
    6.5773   -3.6107    5.3687 O   0  0  0  0  0  0  0  0  0  0  0  0
   -0.4953    2.4242    1.0703 H   0  0  0  0  0  0  0  0  0  0  0  0
    1.6936    3.5467    1.0802 H   0  0  0  0  0  0  0  0  0  0  0  0
    3.7566    2.2318    0.8242 H   0  0  0  0  0  0  0  0  0  0  0  0
    1.4159   -1.3497    0.5403 H   0  0  0  0  0  0  0  0  0  0  0  0
   -0.6353   -0.0165    0.7969 H   0  0  0  0  0  0  0  0  0  0  0  0
    4.9217    0.0476    0.5163 H   0  0  0  0  0  0  0  0  0  0  0  0
    2.9251   -2.2492    0.3606 H   0  0  0  0  0  0  0  0  0  0  0  0
    5.1661   -3.0235   -0.7825 H   0  0  0  0  0  0  0  0  0  0  0  0
    6.0148   -1.9203    0.3269 H   0  0  0  0  0  0  0  0  0  0  0  0
    6.3260   -2.2397    2.3583 H   0  0  0  0  0  0  0  0  0  0  0  0
    4.8276   -2.8059    3.1546 H   0  0  0  0  0  0  0  0  0  0  0  0
    7.8107   -5.2389    6.9213 H   0  0  0  0  0  0  0  0  0  0  0  0
    9.0501   -7.2974    7.3766 H   0  0  0  0  0  0  0  0  0  0  0  0
    9.5392   -8.8836    5.5638 H   0  0  0  0  0  0  0  0  0  0  0  0
    8.7915   -8.4293    3.2712 H   0  0  0  0  0  0  0  0  0  0  0  0
    5.7037   -5.4847    0.3584 H   0  0  0  0  0  0  0  0  0  0  0  0
    7.7858   -2.5775    1.4954 H   0  0  0  0  0  0  0  0  0  0  0  0
    9.5850   -1.6023    0.1287 H   0  0  0  0  0  0  0  0  0  0  0  0
    7.0001   -5.4466   -1.5605 H   0  0  0  0  0  0  0  0  0  0  0  0
   10.6468   -3.5518   -4.2568 H   0  0  0  0  0  0  0  0  0  0  0  0
    9.1538   -2.5603   -4.2191 H   0  0  0  0  0  0  0  0  0  0  0  0
    7.6240   -6.9070    1.7954 H   0  0  0  0  0  0  0  0  0  0  0  0
  1  6  2  0  0  0  0
  1  2  1  0  0  0  0
  1 33  1  0  0  0  0
  2  3  2  0  0  0  0
  2 34  1  0  0  0  0
  3  4  1  0  0  0  0
  3 35  1  0  0  0  0
  4  5  2  0  0  0  0
  4  7  1  0  0  0  0
  5  6  1  0  0  0  0
  5 36  1  0  0  0  0
  6 37  1  0  0  0  0
  7  8  2  0  0  0  0
  7 38  1  0  0  0  0
  8  9  1  0  0  0  0
  8 39  1  0  0  0  0
  9 10  1  0  0  0  0
  9 40  1  0  0  0  0
  9 41  1  0  0  0  0
 10 22  1  0  0  0  0
 10 11  1  0  0  0  0
 11 12  1  0  0  0  0
 11 42  1  0  0  0  0
 11 43  1  0  0  0  0
 12 21  2  0  0  0  0
 12 13  1  0  0  0  0
 13 14  1  0  0  0  0
 13 32  2  0  0  0  0
 14 19  2  0  0  0  0
 14 15  1  0  0  0  0
 15 16  2  0  0  0  0
 15 44  1  0  0  0  0
 16 17  1  0  0  0  0
 16 45  1  0  0  0  0
 17 18  2  0  0  0  0
 17 46  1  0  0  0  0
 18 19  1  0  0  0  0
 18 47  1  0  0  0  0
 19 20  1  0  0  0  0
 20 21  1  0  0  0  0
 20 54  1  0  0  0  0
 21 22  1  0  0  0  0
 22 23  1  0  0  0  0
 22 48  1  0  0  0  0
 23 28  2  0  0  0  0
 23 24  1  0  0  0  0
 24 25  2  0  0  0  0
 24 49  1  0  0  0  0
 25 26  1  0  0  0  0
 25 50  1  0  0  0  0
 26 31  1  0  0  0  0
 26 27  2  0  0  0  0
 27 28  1  0  0  0  0
 27 29  1  0  0  0  0
 28 51  1  0  0  0  0
 29 30  1  0  0  0  0
 30 31  1  0  0  0  0
 30 52  1  0  0  0  0
 30 53  1  0  0  0  0
M  END
$$$$
CHEMBL422006
  -OEChem-07121202283D

 54 59  0     1  0  0  0  0  0999 V2000
   -0.0167    1.3792    0.0096 C   0  0  0  0  0  0  0  0  0  0  0  0
    1.1683    2.0931    0.0021 C   0  0  0  0  0  0  0  0  0  0  0  0
    2.3774    1.4286   -0.0134 C   0  0  0  0  0  0  0  0  0  0  0  0
    2.4032    0.0335   -0.0212 C   0  0  0  0  0  0  0  0  0  0  0  0
    1.2045   -0.6806   -0.0131 C   0  0  0  0  0  0  0  0  0  0  0  0
    0.0021   -0.0041    0.0020 C   0  0  0  0  0  0  0  0  0  0  0  0
    3.6950   -0.6848   -0.0384 C   0  0  0  0  0  0  0  0  0  0  0  0
    3.7162   -2.0103   -0.0457 C   0  0  0  0  0  0  0  0  0  0  0  0
    5.0332   -2.7426   -0.0633 C   0  0  0  0  0  0  0  0  0  0  0  0
    5.0868   -3.6810    1.0657 N   0  0  2  0  0  0  0  0  0  0  0  0
    5.3346   -2.9661    2.3385 C   0  0  0  0  0  0  0  0  0  0  0  0
    6.1674   -3.9106    3.1763 C   0  0  0  0  0  0  0  0  0  0  0  0
    6.4278   -3.9240    4.5665 C   0  0  0  0  0  0  0  0  0  0  0  0
    7.2926   -4.9913    5.0971 C   0  0  0  0  0  0  0  0  0  0  0  0
    7.5967   -5.0777    6.4554 C   0  0  0  0  0  0  0  0  0  0  0  0
    8.4045   -6.0847    6.9050 C   0  0  0  0  0  0  0  0  0  0  0  0
    8.9234   -7.0204    6.0205 C   0  0  0  0  0  0  0  0  0  0  0  0
    8.6346   -6.9531    4.6754 C   0  0  0  0  0  0  0  0  0  0  0  0
    7.8135   -5.9360    4.1958 C   0  0  0  0  0  0  0  0  0  0  0  0
    7.5037   -5.8408    2.8595 N   0  0  0  0  0  0  0  0  0  0  0  0
    6.7042   -4.8555    2.3715 C   0  0  0  0  0  0  0  0  0  0  0  0
    6.2530   -4.5850    0.9493 C   0  0  1  0  0  0  0  0  0  0  0  0
    5.8491   -5.8720    0.2774 C   0  0  0  0  0  0  0  0  0  0  0  0
    4.6322   -6.4550    0.5785 C   0  0  0  0  0  0  0  0  0  0  0  0
    4.2570   -7.6353   -0.0356 C   0  0  0  0  0  0  0  0  0  0  0  0
    5.1010   -8.2374   -0.9547 C   0  0  0  0  0  0  0  0  0  0  0  0
    6.3268   -7.6502   -1.2580 C   0  0  0  0  0  0  0  0  0  0  0  0
    6.6937   -6.4642   -0.6429 C   0  0  0  0  0  0  0  0  0  0  0  0
    6.9663   -8.4269   -2.1805 O   0  0  0  0  0  0  0  0  0  0  0  0
    6.3027   -9.7039   -2.1341 C   0  0  0  0  0  0  0  0  0  0  0  0
    4.9723   -9.3820   -1.6872 O   0  0  0  0  0  0  0  0  0  0  0  0
    5.9507   -3.0768    5.3036 O   0  0  0  0  0  0  0  0  0  0  0  0
   -0.9604    1.9041    0.0260 H   0  0  0  0  0  0  0  0  0  0  0  0
    1.1469    3.1729    0.0082 H   0  0  0  0  0  0  0  0  0  0  0  0
    3.3018    1.9870   -0.0200 H   0  0  0  0  0  0  0  0  0  0  0  0
    1.2178   -1.7605   -0.0194 H   0  0  0  0  0  0  0  0  0  0  0  0
   -0.9265   -0.5556    0.0079 H   0  0  0  0  0  0  0  0  0  0  0  0
    4.6214   -0.1298   -0.0450 H   0  0  0  0  0  0  0  0  0  0  0  0
    2.7898   -2.5653   -0.0392 H   0  0  0  0  0  0  0  0  0  0  0  0
    5.1300   -3.2938   -0.9987 H   0  0  0  0  0  0  0  0  0  0  0  0
    5.8492   -2.0250    0.0217 H   0  0  0  0  0  0  0  0  0  0  0  0
    5.8838   -2.0433    2.1520 H   0  0  0  0  0  0  0  0  0  0  0  0
    4.3910   -2.7498    2.8394 H   0  0  0  0  0  0  0  0  0  0  0  0
    7.1964   -4.3526    7.1484 H   0  0  0  0  0  0  0  0  0  0  0  0
    8.6411   -6.1527    7.9566 H   0  0  0  0  0  0  0  0  0  0  0  0
    9.5607   -7.8096    6.3911 H   0  0  0  0  0  0  0  0  0  0  0  0
    9.0436   -7.6859    3.9955 H   0  0  0  0  0  0  0  0  0  0  0  0
    7.0508   -4.0999    0.3868 H   0  0  0  0  0  0  0  0  0  0  0  0
    3.9734   -5.9874    1.2953 H   0  0  0  0  0  0  0  0  0  0  0  0
    3.3058   -8.0885    0.2015 H   0  0  0  0  0  0  0  0  0  0  0  0
    7.6418   -6.0042   -0.8795 H   0  0  0  0  0  0  0  0  0  0  0  0
    6.2747  -10.1573   -3.1249 H   0  0  0  0  0  0  0  0  0  0  0  0
    6.7959  -10.3662   -1.4226 H   0  0  0  0  0  0  0  0  0  0  0  0
    7.8677   -6.4975    2.2453 H   0  0  0  0  0  0  0  0  0  0  0  0
  1  6  2  0  0  0  0
  1  2  1  0  0  0  0
  1 33  1  0  0  0  0
  2  3  2  0  0  0  0
  2 34  1  0  0  0  0
  3  4  1  0  0  0  0
  3 35  1  0  0  0  0
  4  5  2  0  0  0  0
  4  7  1  0  0  0  0
  5  6  1  0  0  0  0
  5 36  1  0  0  0  0
  6 37  1  0  0  0  0
  7  8  2  0  0  0  0
  7 38  1  0  0  0  0
  8  9  1  0  0  0  0
  8 39  1  0  0  0  0
  9 10  1  0  0  0  0
  9 40  1  0  0  0  0
  9 41  1  0  0  0  0
 10 22  1  0  0  0  0
 10 11  1  0  0  0  0
 11 12  1  0  0  0  0
 11 42  1  0  0  0  0
 11 43  1  0  0  0  0
 12 21  2  0  0  0  0
 12 13  1  0  0  0  0
 13 14  1  0  0  0  0
 13 32  2  0  0  0  0
 14 19  2  0  0  0  0
 14 15  1  0  0  0  0
 15 16  2  0  0  0  0
 15 44  1  0  0  0  0
 16 17  1  0  0  0  0
 16 45  1  0  0  0  0
 17 18  2  0  0  0  0
 17 46  1  0  0  0  0
 18 19  1  0  0  0  0
 18 47  1  0  0  0  0
 19 20  1  0  0  0  0
 20 21  1  0  0  0  0
 20 54  1  0  0  0  0
 21 22  1  0  0  0  0
 22 23  1  0  0  0  0
 22 48  1  0  0  0  0
 23 28  2  0  0  0  0
 23 24  1  0  0  0  0
 24 25  2  0  0  0  0
 24 49  1  0  0  0  0
 25 26  1  0  0  0  0
 25 50  1  0  0  0  0
 26 31  1  0  0  0  0
 26 27  2  0  0  0  0
 27 28  1  0  0  0  0
 27 29  1  0  0  0  0
 28 51  1  0  0  0  0
 29 30  1  0  0  0  0
 30 31  1  0  0  0  0
 30 52  1  0  0  0  0
 30 53  1  0  0  0  0
M  END
$$$$
CHEMBL377168
  -OEChem-07121202283D

 48 50  0     0  0  0  0  0  0999 V2000
   -0.0187    1.5258    0.0104 C   0  0  0  0  0  0  0  0  0  0  0  0
    0.0021   -0.0041    0.0020 C   0  0  0  0  0  0  0  0  0  0  0  0
    0.7421   -0.5109    1.2415 C   0  0  0  0  0  0  0  0  0  0  0  0
    0.7625   -2.0177    1.2333 C   0  0  0  0  0  0  0  0  0  0  0  0
   -0.2149   -2.8548    1.8056 C   0  0  0  0  0  0  0  0  0  0  0  0
    0.1906   -4.1752    1.5722 C   0  0  0  0  0  0  0  0  0  0  0  0
   -0.6201   -5.2315    2.0485 C   0  0  0  0  0  0  0  0  0  0  0  0
   -1.7561   -4.9208    2.7114 N   0  0  0  0  0  0  0  0  0  0  0  0
   -2.1035   -3.6123    2.9109 C   0  0  0  0  0  0  0  0  0  0  0  0
   -1.3623   -2.6230    2.4749 N   0  0  0  0  0  0  0  0  0  0  0  0
   -3.3513   -3.3055    3.6390 C   0  0  0  0  0  0  0  0  0  0  0  0
   -4.1523   -4.3379    4.1163 C   0  0  0  0  0  0  0  0  0  0  0  0
   -5.3308   -4.0391    4.8039 C   0  0  0  0  0  0  0  0  0  0  0  0
   -5.7010   -2.7025    5.0098 C   0  0  0  0  0  0  0  0  0  0  0  0
   -4.9068   -1.6837    4.5365 C   0  0  0  0  0  0  0  0  0  0  0  0
   -3.7296   -1.9714    3.8564 C   0  0  0  0  0  0  0  0  0  0  0  0
   -2.9490   -0.9631    3.3978 O   0  0  0  0  0  0  0  0  0  0  0  0
   -3.3944    0.3703    3.6545 C   0  0  0  0  0  0  0  0  0  0  0  0
   -2.3917    1.3650    3.0662 C   0  0  0  0  0  0  0  0  0  0  0  0
   -6.1819   -5.1241    5.3103 C   0  0  0  0  0  0  0  0  0  0  0  0
   -5.8613   -6.2801    5.1315 O   0  0  0  0  0  0  0  0  0  0  0  0
   -7.4533   -4.8008    6.0521 C   0  0  0  0  0  0  0  0  0  0  0  0
   -0.3022   -6.3938    1.8654 O   0  0  0  0  0  0  0  0  0  0  0  0
    1.3703   -4.1140    0.8837 N   0  0  0  0  0  0  0  0  0  0  0  0
    1.6863   -2.7630    0.6895 N   0  0  0  0  0  0  0  0  0  0  0  0
    2.1610   -5.2589    0.4251 C   0  0  0  0  0  0  0  0  0  0  0  0
    1.0039    1.9031    0.0027 H   0  0  0  0  0  0  0  0  0  0  0  0
   -0.5459    1.8868   -0.8726 H   0  0  0  0  0  0  0  0  0  0  0  0
   -0.5289    1.8773    0.9072 H   0  0  0  0  0  0  0  0  0  0  0  0
   -1.0205   -0.3814    0.0098 H   0  0  0  0  0  0  0  0  0  0  0  0
    0.5123   -0.3556   -0.8948 H   0  0  0  0  0  0  0  0  0  0  0  0
    1.7647   -0.1336    1.2338 H   0  0  0  0  0  0  0  0  0  0  0  0
    0.2319   -0.1594    2.1383 H   0  0  0  0  0  0  0  0  0  0  0  0
   -3.8643   -5.3663    3.9556 H   0  0  0  0  0  0  0  0  0  0  0  0
   -6.6125   -2.4721    5.5412 H   0  0  0  0  0  0  0  0  0  0  0  0
   -5.1972   -0.6561    4.6979 H   0  0  0  0  0  0  0  0  0  0  0  0
   -4.3703    0.5224    3.1934 H   0  0  0  0  0  0  0  0  0  0  0  0
   -3.4725    0.5265    4.7304 H   0  0  0  0  0  0  0  0  0  0  0  0
   -2.7314    2.3820    3.2619 H   0  0  0  0  0  0  0  0  0  0  0  0
   -1.4158    1.2128    3.5272 H   0  0  0  0  0  0  0  0  0  0  0  0
   -2.3136    1.2087    1.9903 H   0  0  0  0  0  0  0  0  0  0  0  0
   -8.1159   -4.2269    5.4043 H   0  0  0  0  0  0  0  0  0  0  0  0
   -7.9467   -5.7266    6.3480 H   0  0  0  0  0  0  0  0  0  0  0  0
   -7.2167   -4.2151    6.9404 H   0  0  0  0  0  0  0  0  0  0  0  0
    1.8392   -5.5449   -0.5763 H   0  0  0  0  0  0  0  0  0  0  0  0
    3.2162   -4.9864    0.4037 H   0  0  0  0  0  0  0  0  0  0  0  0
    2.0159   -6.0971    1.1066 H   0  0  0  0  0  0  0  0  0  0  0  0
   -2.3281   -5.6287    3.0470 H   0  0  0  0  0  0  0  0  0  0  0  0
  1  2  1  0  0  0  0
  1 27  1  0  0  0  0
  1 28  1  0  0  0  0
  1 29  1  0  0  0  0
  2  3  1  0  0  0  0
  2 30  1  0  0  0  0
  2 31  1  0  0  0  0
  3  4  1  0  0  0  0
  3 32  1  0  0  0  0
  3 33  1  0  0  0  0
  4 25  2  0  0  0  0
  4  5  1  0  0  0  0
  5 10  1  0  0  0  0
  5  6  2  0  0  0  0
  6  7  1  0  0  0  0
  6 24  1  0  0  0  0
  7  8  1  0  0  0  0
  7 23  2  0  0  0  0
  8  9  1  0  0  0  0
  8 48  1  0  0  0  0
  9 10  2  0  0  0  0
  9 11  1  0  0  0  0
 11 16  2  0  0  0  0
 11 12  1  0  0  0  0
 12 13  2  0  0  0  0
 12 34  1  0  0  0  0
 13 14  1  0  0  0  0
 13 20  1  0  0  0  0
 14 15  2  0  0  0  0
 14 35  1  0  0  0  0
 15 16  1  0  0  0  0
 15 36  1  0  0  0  0
 16 17  1  0  0  0  0
 17 18  1  0  0  0  0
 18 19  1  0  0  0  0
 18 37  1  0  0  0  0
 18 38  1  0  0  0  0
 19 39  1  0  0  0  0
 19 40  1  0  0  0  0
 19 41  1  0  0  0  0
 20 21  2  0  0  0  0
 20 22  1  0  0  0  0
 22 42  1  0  0  0  0
 22 43  1  0  0  0  0
 22 44  1  0  0  0  0
 24 25  1  0  0  0  0
 24 26  1  0  0  0  0
 26 45  1  0  0  0  0
 26 46  1  0  0  0  0
 26 47  1  0  0  0  0
M  END
$$$$
CHEMBL377168
  -OEChem-07121202283D

 48 50  0     0  0  0  0  0  0999 V2000
   -0.0187    1.5258    0.0104 C   0  0  0  0  0  0  0  0  0  0  0  0
    0.0021   -0.0041    0.0020 C   0  0  0  0  0  0  0  0  0  0  0  0
    0.7182   -0.4975   -1.2568 C   0  0  0  0  0  0  0  0  0  0  0  0
    0.7386   -2.0043   -1.2651 C   0  0  0  0  0  0  0  0  0  0  0  0
    1.7371   -2.8090   -0.7054 C   0  0  0  0  0  0  0  0  0  0  0  0
    1.3735   -4.1351   -0.9297 C   0  0  0  0  0  0  0  0  0  0  0  0
    2.2600   -5.1909   -0.4371 C   0  0  0  0  0  0  0  0  0  0  0  0
    3.3837   -4.8396    0.2086 N   0  0  0  0  0  0  0  0  0  0  0  0
    3.6973   -3.5767    0.4036 C   0  0  0  0  0  0  0  0  0  0  0  0
    2.9156   -2.5524   -0.0300 N   0  0  0  0  0  0  0  0  0  0  0  0
    4.9473   -3.2596    1.1210 C   0  0  0  0  0  0  0  0  0  0  0  0
    5.3047   -1.9336    1.3484 C   0  0  0  0  0  0  0  0  0  0  0  0
    6.4889   -1.6426    2.0285 C   0  0  0  0  0  0  0  0  0  0  0  0
    7.3119   -2.6850    2.4788 C   0  0  0  0  0  0  0  0  0  0  0  0
    6.9566   -3.9944    2.2528 C   0  0  0  0  0  0  0  0  0  0  0  0
    5.7772   -4.2946    1.5815 C   0  0  0  0  0  0  0  0  0  0  0  0
    5.4305   -5.5864    1.3668 O   0  0  0  0  0  0  0  0  0  0  0  0
    6.3211   -6.5881    1.8624 C   0  0  0  0  0  0  0  0  0  0  0  0
    5.7666   -7.9742    1.5278 C   0  0  0  0  0  0  0  0  0  0  0  0
    6.8726   -0.2455    2.2716 C   0  0  0  0  0  0  0  0  0  0  0  0
    6.1606    0.6556    1.8816 O   0  0  0  0  0  0  0  0  0  0  0  0
    8.1509    0.0679    3.0057 C   0  0  0  0  0  0  0  0  0  0  0  0
    1.9830   -6.3672   -0.6096 O   0  0  0  0  0  0  0  0  0  0  0  0
    0.1883   -4.1166   -1.6059 N   0  0  0  0  0  0  0  0  0  0  0  0
   -0.1769   -2.7759   -1.7917 N   0  0  0  0  0  0  0  0  0  0  0  0
   -0.5692   -5.2881   -2.0530 C   0  0  0  0  0  0  0  0  0  0  0  0
    1.0039    1.9031    0.0027 H   0  0  0  0  0  0  0  0  0  0  0  0
   -0.5459    1.8868   -0.8726 H   0  0  0  0  0  0  0  0  0  0  0  0
   -0.5289    1.8773    0.9072 H   0  0  0  0  0  0  0  0  0  0  0  0
    0.5293   -0.3651    0.8851 H   0  0  0  0  0  0  0  0  0  0  0  0
   -1.0205   -0.3814    0.0098 H   0  0  0  0  0  0  0  0  0  0  0  0
    0.1910   -0.1364   -2.1398 H   0  0  0  0  0  0  0  0  0  0  0  0
    1.7408   -0.1202   -1.2645 H   0  0  0  0  0  0  0  0  0  0  0  0
    4.6688   -1.1333    1.0000 H   0  0  0  0  0  0  0  0  0  0  0  0
    8.2279   -2.4588    3.0044 H   0  0  0  0  0  0  0  0  0  0  0  0
    7.5947   -4.7927    2.6021 H   0  0  0  0  0  0  0  0  0  0  0  0
    7.2996   -6.4663    1.3979 H   0  0  0  0  0  0  0  0  0  0  0  0
    6.4169   -6.4863    2.9434 H   0  0  0  0  0  0  0  0  0  0  0  0
    6.4459   -8.7383    1.9058 H   0  0  0  0  0  0  0  0  0  0  0  0
    4.7881   -8.0960    1.9924 H   0  0  0  0  0  0  0  0  0  0  0  0
    5.6708   -8.0760    0.4468 H   0  0  0  0  0  0  0  0  0  0  0  0
    8.9679    0.1592    2.2899 H   0  0  0  0  0  0  0  0  0  0  0  0
    8.0373    1.0061    3.5488 H   0  0  0  0  0  0  0  0  0  0  0  0
    8.3721   -0.7347    3.7092 H   0  0  0  0  0  0  0  0  0  0  0  0
   -1.2665   -5.5899   -1.2714 H   0  0  0  0  0  0  0  0  0  0  0  0
   -1.1235   -5.0386   -2.9578 H   0  0  0  0  0  0  0  0  0  0  0  0
    0.1186   -6.1073   -2.2625 H   0  0  0  0  0  0  0  0  0  0  0  0
    3.1862   -1.6358    0.1360 H   0  0  0  0  0  0  0  0  0  0  0  0
  1  2  1  0  0  0  0
  1 27  1  0  0  0  0
  1 28  1  0  0  0  0
  1 29  1  0  0  0  0
  2  3  1  0  0  0  0
  2 30  1  0  0  0  0
  2 31  1  0  0  0  0
  3  4  1  0  0  0  0
  3 32  1  0  0  0  0
  3 33  1  0  0  0  0
  4 25  2  0  0  0  0
  4  5  1  0  0  0  0
  5 10  1  0  0  0  0
  5  6  2  0  0  0  0
  6  7  1  0  0  0  0
  6 24  1  0  0  0  0
  7  8  1  0  0  0  0
  7 23  2  0  0  0  0
  8  9  2  0  0  0  0
  9 10  1  0  0  0  0
  9 11  1  0  0  0  0
 10 48  1  0  0  0  0
 11 16  2  0  0  0  0
 11 12  1  0  0  0  0
 12 13  2  0  0  0  0
 12 34  1  0  0  0  0
 13 14  1  0  0  0  0
 13 20  1  0  0  0  0
 14 15  2  0  0  0  0
 14 35  1  0  0  0  0
 15 16  1  0  0  0  0
 15 36  1  0  0  0  0
 16 17  1  0  0  0  0
 17 18  1  0  0  0  0
 18 19  1  0  0  0  0
 18 37  1  0  0  0  0
 18 38  1  0  0  0  0
 19 39  1  0  0  0  0
 19 40  1  0  0  0  0
 19 41  1  0  0  0  0
 20 21  2  0  0  0  0
 20 22  1  0  0  0  0
 22 42  1  0  0  0  0
 22 43  1  0  0  0  0
 22 44  1  0  0  0  0
 24 25  1  0  0  0  0
 24 26  1  0  0  0  0
 26 45  1  0  0  0  0
 26 46  1  0  0  0  0
 26 47  1  0  0  0  0
M  END
$$$$
CHEMBL377168
  -OEChem-07121202283D

 47 49  0     0  0  0  0  0  0999 V2000
    0.0427    1.5251   -0.0022 C   0  0  0  0  0  0  0  0  0  0  0  0
    0.0612   -0.0048   -0.0105 C   0  0  0  0  0  0  0  0  0  0  0  0
   -1.3748   -0.5323    0.0125 C   0  0  0  0  0  0  0  0  0  0  0  0
   -1.3565   -2.0392    0.0043 C   0  0  0  0  0  0  0  0  0  0  0  0
   -1.3615   -2.8558   -1.1476 C   0  0  0  0  0  0  0  0  0  0  0  0
   -1.3395   -4.1908   -0.7013 C   0  0  0  0  0  0  0  0  0  0  0  0
   -1.3394   -5.2155   -1.6563 C   0  0  0  0  0  0  0  0  0  0  0  0
   -1.3599   -4.8884   -2.9400 N   0  0  0  0  0  0  0  0  0  0  0  0
   -1.3804   -3.6154   -3.3264 C   0  0  0  0  0  0  0  0  0  0  0  0
   -1.3814   -2.6153   -2.4630 N   0  0  0  0  0  0  0  0  0  0  0  0
   -1.4023   -3.3085   -4.7764 C   0  0  0  0  0  0  0  0  0  0  0  0
   -1.4182   -1.9888   -5.2082 C   0  0  0  0  0  0  0  0  0  0  0  0
   -1.4388   -1.7070   -6.5769 C   0  0  0  0  0  0  0  0  0  0  0  0
   -1.4435   -2.7560   -7.5063 C   0  0  0  0  0  0  0  0  0  0  0  0
   -1.4277   -4.0622   -7.0742 C   0  0  0  0  0  0  0  0  0  0  0  0
   -1.4013   -4.3495   -5.7148 C   0  0  0  0  0  0  0  0  0  0  0  0
   -1.3798   -5.6385   -5.2957 O   0  0  0  0  0  0  0  0  0  0  0  0
   -1.3800   -6.6492   -6.3059 C   0  0  0  0  0  0  0  0  0  0  0  0
   -1.3543   -8.0295   -5.6464 C   0  0  0  0  0  0  0  0  0  0  0  0
   -1.4562   -0.3133   -7.0408 C   0  0  0  0  0  0  0  0  0  0  0  0
   -1.5537    0.5915   -6.2389 O   0  0  0  0  0  0  0  0  0  0  0  0
   -1.3529   -0.0078   -8.5128 C   0  0  0  0  0  0  0  0  0  0  0  0
   -1.3182   -6.5153   -1.2749 O   0  5  0  0  0  0  0  0  0  0  0  0
   -1.3223   -4.1490    0.6671 N   0  0  0  0  0  0  0  0  0  0  0  0
   -1.3280   -2.8039    1.0593 N   0  0  0  0  0  0  0  0  0  0  0  0
   -1.2972   -5.3072    1.5637 C   0  0  0  0  0  0  0  0  0  0  0  0
    1.0658    1.9009   -0.0185 H   0  0  0  0  0  0  0  0  0  0  0  0
   -0.4913    1.8868   -0.8809 H   0  0  0  0  0  0  0  0  0  0  0  0
   -0.4595    1.8775    0.8988 H   0  0  0  0  0  0  0  0  0  0  0  0
    0.5634   -0.3572   -0.9114 H   0  0  0  0  0  0  0  0  0  0  0  0
    0.5953   -0.3664    0.8682 H   0  0  0  0  0  0  0  0  0  0  0  0
   -1.8769   -0.1799    0.9134 H   0  0  0  0  0  0  0  0  0  0  0  0
   -1.9088   -0.1706   -0.8662 H   0  0  0  0  0  0  0  0  0  0  0  0
   -1.4149   -1.1832   -4.4889 H   0  0  0  0  0  0  0  0  0  0  0  0
   -1.4598   -2.5386   -8.5641 H   0  0  0  0  0  0  0  0  0  0  0  0
   -1.4318   -4.8672   -7.7942 H   0  0  0  0  0  0  0  0  0  0  0  0
   -2.2792   -6.5542   -6.9147 H   0  0  0  0  0  0  0  0  0  0  0  0
   -0.4995   -6.5319   -6.9376 H   0  0  0  0  0  0  0  0  0  0  0  0
   -1.3545   -8.8005   -6.4169 H   0  0  0  0  0  0  0  0  0  0  0  0
   -0.4551   -8.1246   -5.0376 H   0  0  0  0  0  0  0  0  0  0  0  0
   -2.2348   -8.1469   -5.0147 H   0  0  0  0  0  0  0  0  0  0  0  0
   -1.3642   -0.9392   -9.0789 H   0  0  0  0  0  0  0  0  0  0  0  0
   -2.1971    0.6116   -8.8155 H   0  0  0  0  0  0  0  0  0  0  0  0
   -0.4225    0.5252   -8.7088 H   0  0  0  0  0  0  0  0  0  0  0  0
   -0.2634   -5.5824    1.7729 H   0  0  0  0  0  0  0  0  0  0  0  0
   -1.8020   -5.0557    2.4965 H   0  0  0  0  0  0  0  0  0  0  0  0
   -1.8073   -6.1454    1.0890 H   0  0  0  0  0  0  0  0  0  0  0  0
  1  2  1  0  0  0  0
  1 27  1  0  0  0  0
  1 28  1  0  0  0  0
  1 29  1  0  0  0  0
  2  3  1  0  0  0  0
  2 30  1  0  0  0  0
  2 31  1  0  0  0  0
  3  4  1  0  0  0  0
  3 32  1  0  0  0  0
  3 33  1  0  0  0  0
  4 25  2  0  0  0  0
  4  5  1  0  0  0  0
  5 10  2  0  0  0  0
  5  6  1  0  0  0  0
  6  7  2  0  0  0  0
  6 24  1  0  0  0  0
  7  8  1  0  0  0  0
  7 23  1  0  0  0  0
  8  9  2  0  0  0  0
  9 10  1  0  0  0  0
  9 11  1  0  0  0  0
 11 16  2  0  0  0  0
 11 12  1  0  0  0  0
 12 13  2  0  0  0  0
 12 34  1  0  0  0  0
 13 14  1  0  0  0  0
 13 20  1  0  0  0  0
 14 15  2  0  0  0  0
 14 35  1  0  0  0  0
 15 16  1  0  0  0  0
 15 36  1  0  0  0  0
 16 17  1  0  0  0  0
 17 18  1  0  0  0  0
 18 19  1  0  0  0  0
 18 37  1  0  0  0  0
 18 38  1  0  0  0  0
 19 39  1  0  0  0  0
 19 40  1  0  0  0  0
 19 41  1  0  0  0  0
 20 21  2  0  0  0  0
 20 22  1  0  0  0  0
 22 42  1  0  0  0  0
 22 43  1  0  0  0  0
 22 44  1  0  0  0  0
 24 25  1  0  0  0  0
 24 26  1  0  0  0  0
 26 45  1  0  0  0  0
 26 46  1  0  0  0  0
 26 47  1  0  0  0  0
M  CHG  1  23  -1
M  END
$$$$
CHEMBL563637
  -OEChem-07121202283D

 60 63  0     0  0  0  0  0  0999 V2000
   -0.0178    1.4608    0.0101 C   0  0  0  0  0  0  0  0  0  0  0  0
    0.0021   -0.0041    0.0020 N   0  0  0  0  0  0  0  0  0  0  0  0
    0.0241   -0.7433    1.2666 C   0  0  0  0  0  0  0  0  0  0  0  0
    0.0001   -0.6716   -1.1688 C   0  0  0  0  0  0  0  0  0  0  0  0
   -0.0182   -0.0596   -2.2157 O   0  0  0  0  0  0  0  0  0  0  0  0
    0.0205   -2.1784   -1.1771 C   0  0  0  0  0  0  0  0  0  0  0  0
    0.0139   -2.6593   -2.5609 N   0  0  0  0  0  0  0  0  0  0  0  0
    0.0300   -4.0184   -2.8213 C   0  0  0  0  0  0  0  0  0  0  0  0
    0.0295   -4.5030   -4.2138 C   0  0  0  0  0  0  0  0  0  0  0  0
    0.0151   -3.7139   -5.1404 O   0  0  0  0  0  0  0  0  0  0  0  0
    0.0458   -5.8325   -4.4489 N   0  0  0  0  0  0  0  0  0  0  0  0
    0.0624   -6.7051   -3.3791 C   0  0  0  0  0  0  0  0  0  0  0  0
    0.0622   -6.2019   -2.0640 C   0  0  0  0  0  0  0  0  0  0  0  0
    0.0510   -4.8751   -1.8311 N   0  0  0  0  0  0  0  0  0  0  0  0
    0.0793   -7.1054   -0.9877 C   0  0  0  0  0  0  0  0  0  0  0  0
    0.0956   -8.4456   -1.2608 C   0  0  0  0  0  0  0  0  0  0  0  0
    0.0948   -8.8787   -2.5894 C   0  0  0  0  0  0  0  0  0  0  0  0
    0.0790   -8.0124   -3.5926 N   0  0  0  0  0  0  0  0  0  0  0  0
    0.1129  -10.3312   -2.8819 C   0  0  0  0  0  0  0  0  0  0  0  0
    0.1247  -11.2550   -1.8371 C   0  0  0  0  0  0  0  0  0  0  0  0
    0.1411  -12.6060   -2.1143 C   0  0  0  0  0  0  0  0  0  0  0  0
    0.1462  -13.0460   -3.4284 C   0  0  0  0  0  0  0  0  0  0  0  0
    0.1350  -12.1318   -4.4700 C   0  0  0  0  0  0  0  0  0  0  0  0
    0.1123  -10.7789   -4.2027 C   0  0  0  0  0  0  0  0  0  0  0  0
    0.1627  -14.3704   -3.6951 F   0  0  0  0  0  0  0  0  0  0  0  0
    0.0453   -6.3428   -5.8221 C   0  0  0  0  0  0  0  0  0  0  0  0
    1.4875   -6.5015   -6.3078 C   0  0  0  0  0  0  0  0  0  0  0  0
    2.1531   -5.1262   -6.3873 C   0  0  0  0  0  0  0  0  0  0  0  0
    3.5952   -5.2849   -6.8729 C   0  0  0  0  0  0  0  0  0  0  0  0
    3.5983   -5.9338   -8.2585 C   0  0  0  0  0  0  0  0  0  0  0  0
    2.9327   -7.3092   -8.1789 C   0  0  0  0  0  0  0  0  0  0  0  0
    1.4906   -7.1505   -7.6933 C   0  0  0  0  0  0  0  0  0  0  0  0
    1.0048    1.8381    0.0023 H   0  0  0  0  0  0  0  0  0  0  0  0
   -0.5450    1.8219   -0.8730 H   0  0  0  0  0  0  0  0  0  0  0  0
   -0.5280    1.8123    0.9069 H   0  0  0  0  0  0  0  0  0  0  0  0
    0.0224   -0.0395    2.0990 H   0  0  0  0  0  0  0  0  0  0  0  0
   -0.8567   -1.3823    1.3294 H   0  0  0  0  0  0  0  0  0  0  0  0
    0.9230   -1.3581    1.3125 H   0  0  0  0  0  0  0  0  0  0  0  0
    0.9202   -2.5324   -0.6737 H   0  0  0  0  0  0  0  0  0  0  0  0
   -0.8595   -2.5566   -0.6569 H   0  0  0  0  0  0  0  0  0  0  0  0
   -0.0016   -2.0251   -3.2947 H   0  0  0  0  0  0  0  0  0  0  0  0
    0.0800   -6.7496    0.0320 H   0  0  0  0  0  0  0  0  0  0  0  0
    0.1093   -9.1644   -0.4548 H   0  0  0  0  0  0  0  0  0  0  0  0
    0.1214  -10.9130   -0.8127 H   0  0  0  0  0  0  0  0  0  0  0  0
    0.1503  -13.3222   -1.3059 H   0  0  0  0  0  0  0  0  0  0  0  0
    0.1394  -12.4794   -5.4925 H   0  0  0  0  0  0  0  0  0  0  0  0
    0.0991  -10.0673   -5.0150 H   0  0  0  0  0  0  0  0  0  0  0  0
   -0.4560   -7.3103   -5.8500 H   0  0  0  0  0  0  0  0  0  0  0  0
   -0.4812   -5.6420   -6.4700 H   0  0  0  0  0  0  0  0  0  0  0  0
    2.0385   -7.1320   -5.6100 H   0  0  0  0  0  0  0  0  0  0  0  0
    1.6020   -4.4957   -7.0851 H   0  0  0  0  0  0  0  0  0  0  0  0
    2.1509   -4.6638   -5.4002 H   0  0  0  0  0  0  0  0  0  0  0  0
    4.0694   -4.3050   -6.9296 H   0  0  0  0  0  0  0  0  0  0  0  0
    4.1463   -5.9154   -6.1752 H   0  0  0  0  0  0  0  0  0  0  0  0
    3.0473   -5.3033   -8.9562 H   0  0  0  0  0  0  0  0  0  0  0  0
    4.6258   -6.0469   -8.6045 H   0  0  0  0  0  0  0  0  0  0  0  0
    2.9349   -7.7715   -9.1660 H   0  0  0  0  0  0  0  0  0  0  0  0
    3.4838   -7.9397   -7.4812 H   0  0  0  0  0  0  0  0  0  0  0  0
    1.0164   -8.1303   -7.6366 H   0  0  0  0  0  0  0  0  0  0  0  0
    0.9395   -6.5200   -8.3911 H   0  0  0  0  0  0  0  0  0  0  0  0
  1  2  1  0  0  0  0
  1 33  1  0  0  0  0
  1 34  1  0  0  0  0
  1 35  1  0  0  0  0
  2  3  1  0  0  0  0
  2  4  1  0  0  0  0
  3 36  1  0  0  0  0
  3 37  1  0  0  0  0
  3 38  1  0  0  0  0
  4  5  2  0  0  0  0
  4  6  1  0  0  0  0
  6  7  1  0  0  0  0
  6 39  1  0  0  0  0
  6 40  1  0  0  0  0
  7  8  1  0  0  0  0
  7 41  1  0  0  0  0
  8 14  2  0  0  0  0
  8  9  1  0  0  0  0
  9 10  2  0  0  0  0
  9 11  1  0  0  0  0
 11 12  1  0  0  0  0
 11 26  1  0  0  0  0
 12 18  2  0  0  0  0
 12 13  1  0  0  0  0
 13 14  1  0  0  0  0
 13 15  2  0  0  0  0
 15 16  1  0  0  0  0
 15 42  1  0  0  0  0
 16 17  2  0  0  0  0
 16 43  1  0  0  0  0
 17 18  1  0  0  0  0
 17 19  1  0  0  0  0
 19 24  2  0  0  0  0
 19 20  1  0  0  0  0
 20 21  2  0  0  0  0
 20 44  1  0  0  0  0
 21 22  1  0  0  0  0
 21 45  1  0  0  0  0
 22 23  2  0  0  0  0
 22 25  1  0  0  0  0
 23 24  1  0  0  0  0
 23 46  1  0  0  0  0
 24 47  1  0  0  0  0
 26 27  1  0  0  0  0
 26 48  1  0  0  0  0
 26 49  1  0  0  0  0
 27 32  1  0  0  0  0
 27 28  1  0  0  0  0
 27 50  1  0  0  0  0
 28 29  1  0  0  0  0
 28 51  1  0  0  0  0
 28 52  1  0  0  0  0
 29 30  1  0  0  0  0
 29 53  1  0  0  0  0
 29 54  1  0  0  0  0
 30 31  1  0  0  0  0
 30 55  1  0  0  0  0
 30 56  1  0  0  0  0
 31 32  1  0  0  0  0
 31 57  1  0  0  0  0
 31 58  1  0  0  0  0
 32 59  1  0  0  0  0
 32 60  1  0  0  0  0
M  END
$$$$
CHEMBL511065
  -OEChem-07121202283D

 76 81  0     0  0  0  0  0  0999 V2000
   -0.0187    1.5258    0.0104 C   0  0  0  0  0  0  0  0  0  0  0  0
    0.0021   -0.0041    0.0020 C   0  0  0  0  0  0  0  0  0  0  0  0
    0.7421   -0.5109    1.2415 C   0  0  0  0  0  0  0  0  0  0  0  0
    0.7625   -2.0177    1.2333 C   0  0  0  0  0  0  0  0  0  0  0  0
   -0.2150   -2.8548    1.8056 C   0  0  0  0  0  0  0  0  0  0  0  0
    0.1902   -4.1752    1.5714 C   0  0  0  0  0  0  0  0  0  0  0  0
   -0.6206   -5.2316    2.0475 C   0  0  0  0  0  0  0  0  0  0  0  0
   -0.3025   -6.3939    1.8644 O   0  0  0  0  0  0  0  0  0  0  0  0
   -1.7563   -4.9210    2.7109 N   0  0  0  0  0  0  0  0  0  0  0  0
   -2.3282   -5.6289    3.0467 H   0  0  0  0  0  0  0  0  0  0  0  0
   -2.1032   -3.6124    2.9116 C   0  0  0  0  0  0  0  0  0  0  0  0
   -1.3622   -2.6230    2.4750 N   0  0  0  0  0  0  0  0  0  0  0  0
   -3.3503   -3.3058    3.6401 C   0  0  0  0  0  0  0  0  0  0  0  0
   -4.1559   -4.3406    4.1193 C   0  0  0  0  0  0  0  0  0  0  0  0
   -5.3192   -4.0479    4.7987 C   0  0  0  0  0  0  0  0  0  0  0  0
   -5.6932   -2.7309    5.0080 C   0  0  0  0  0  0  0  0  0  0  0  0
   -4.9050   -1.6981    4.5390 C   0  0  0  0  0  0  0  0  0  0  0  0
   -3.7289   -1.9750    3.8592 C   0  0  0  0  0  0  0  0  0  0  0  0
   -2.9506   -0.9610    3.4028 O   0  0  0  0  0  0  0  0  0  0  0  0
   -3.4004    0.3701    3.6636 C   0  0  0  0  0  0  0  0  0  0  0  0
   -2.4013    1.3700    3.0781 C   0  0  0  0  0  0  0  0  0  0  0  0
   -6.3348   -5.3548    5.4029 S   0  0  0  0  0  0  0  0  0  0  0  0
   -7.6469   -4.8242    5.5294 O   0  0  0  0  0  0  0  0  0  0  0  0
   -6.0477   -6.4946    4.6044 O   0  0  0  0  0  0  0  0  0  0  0  0
   -5.8174   -5.7083    6.9358 N   0  0  0  0  0  0  0  0  0  0  0  0
   -4.7668   -6.7117    7.1652 C   0  0  0  0  0  0  0  0  0  0  0  0
   -5.2657   -7.7067    8.2185 C   0  0  0  0  0  0  0  0  0  0  0  0
   -5.6958   -6.9727    9.4160 N   0  0  0  0  0  0  0  0  0  0  0  0
   -6.8310   -6.0887    9.1201 C   0  0  0  0  0  0  0  0  0  0  0  0
   -6.3920   -5.0229    8.1033 C   0  0  0  0  0  0  0  0  0  0  0  0
   -6.0193   -7.8962   10.5116 C   0  0  0  0  0  0  0  0  0  0  0  0
   -6.2166   -7.1152   11.7853 C   0  0  0  0  0  0  0  0  0  0  0  0
   -5.1393   -6.8653   12.6150 C   0  0  0  0  0  0  0  0  0  0  0  0
   -5.3151   -6.1489   13.7841 C   0  0  0  0  0  0  0  0  0  0  0  0
   -6.5727   -5.6797   14.1273 C   0  0  0  0  0  0  0  0  0  0  0  0
   -7.6579   -5.9315   13.2915 C   0  0  0  0  0  0  0  0  0  0  0  0
   -7.4732   -6.6452   12.1185 C   0  0  0  0  0  0  0  0  0  0  0  0
   -8.7734   -5.3715   13.8442 O   0  0  0  0  0  0  0  0  0  0  0  0
   -8.4384   -5.1281   15.2233 C   0  0  0  0  0  0  0  0  0  0  0  0
   -7.0083   -4.9619   15.2036 O   0  0  0  0  0  0  0  0  0  0  0  0
    1.3696   -4.1140    0.8826 N   0  0  0  0  0  0  0  0  0  0  0  0
    1.6863   -2.7630    0.6895 N   0  0  0  0  0  0  0  0  0  0  0  0
    2.1603   -5.2589    0.4238 C   0  0  0  0  0  0  0  0  0  0  0  0
    1.0039    1.9031    0.0027 H   0  0  0  0  0  0  0  0  0  0  0  0
   -0.5459    1.8868   -0.8726 H   0  0  0  0  0  0  0  0  0  0  0  0
   -0.5289    1.8773    0.9072 H   0  0  0  0  0  0  0  0  0  0  0  0
   -1.0205   -0.3814    0.0098 H   0  0  0  0  0  0  0  0  0  0  0  0
    0.5123   -0.3556   -0.8948 H   0  0  0  0  0  0  0  0  0  0  0  0
    1.7647   -0.1336    1.2338 H   0  0  0  0  0  0  0  0  0  0  0  0
    0.2319   -0.1594    2.1383 H   0  0  0  0  0  0  0  0  0  0  0  0
   -3.8683   -5.3690    3.9577 H   0  0  0  0  0  0  0  0  0  0  0  0
   -6.6064   -2.5102    5.5406 H   0  0  0  0  0  0  0  0  0  0  0  0
   -5.2033   -0.6736    4.7056 H   0  0  0  0  0  0  0  0  0  0  0  0
   -4.3769    0.5203    3.2032 H   0  0  0  0  0  0  0  0  0  0  0  0
   -3.4788    0.5227    4.7400 H   0  0  0  0  0  0  0  0  0  0  0  0
   -2.7444    2.3853    3.2770 H   0  0  0  0  0  0  0  0  0  0  0  0
   -1.4248    1.2197    3.5385 H   0  0  0  0  0  0  0  0  0  0  0  0
   -2.3229    1.2173    2.0017 H   0  0  0  0  0  0  0  0  0  0  0  0
   -4.5544   -7.2388    6.2351 H   0  0  0  0  0  0  0  0  0  0  0  0
   -3.8631   -6.2199    7.5252 H   0  0  0  0  0  0  0  0  0  0  0  0
   -6.1069   -8.2711    7.8161 H   0  0  0  0  0  0  0  0  0  0  0  0
   -4.4600   -8.3921    8.4818 H   0  0  0  0  0  0  0  0  0  0  0  0
   -7.6505   -6.6755    8.7051 H   0  0  0  0  0  0  0  0  0  0  0  0
   -7.1607   -5.6006   10.0372 H   0  0  0  0  0  0  0  0  0  0  0  0
   -5.6416   -4.3719    8.5517 H   0  0  0  0  0  0  0  0  0  0  0  0
   -7.2547   -4.4330    7.7937 H   0  0  0  0  0  0  0  0  0  0  0  0
   -6.9345   -8.4377   10.2721 H   0  0  0  0  0  0  0  0  0  0  0  0
   -5.2016   -8.6049   10.6430 H   0  0  0  0  0  0  0  0  0  0  0  0
   -4.1584   -7.2309   12.3494 H   0  0  0  0  0  0  0  0  0  0  0  0
   -4.4718   -5.9551   14.4304 H   0  0  0  0  0  0  0  0  0  0  0  0
   -8.3121   -6.8381   11.4662 H   0  0  0  0  0  0  0  0  0  0  0  0
   -8.9246   -4.2206   15.5811 H   0  0  0  0  0  0  0  0  0  0  0  0
   -8.7163   -5.9819   15.8413 H   0  0  0  0  0  0  0  0  0  0  0  0
    1.8382   -5.5450   -0.5774 H   0  0  0  0  0  0  0  0  0  0  0  0
    3.2154   -4.9863    0.4020 H   0  0  0  0  0  0  0  0  0  0  0  0
    2.0155   -6.0970    1.1055 H   0  0  0  0  0  0  0  0  0  0  0  0
  1  2  1  0  0  0  0
  1 44  1  0  0  0  0
  1 45  1  0  0  0  0
  1 46  1  0  0  0  0
  2  3  1  0  0  0  0
  2 47  1  0  0  0  0
  2 48  1  0  0  0  0
  3  4  1  0  0  0  0
  3 49  1  0  0  0  0
  3 50  1  0  0  0  0
  4 42  2  0  0  0  0
  4  5  1  0  0  0  0
  5 12  1  0  0  0  0
  5  6  2  0  0  0  0
  6  7  1  0  0  0  0
  6 41  1  0  0  0  0
  7  8  2  0  0  0  0
  7  9  1  0  0  0  0
  9 10  1  0  0  0  0
  9 11  1  0  0  0  0
 11 12  2  0  0  0  0
 11 13  1  0  0  0  0
 13 18  2  0  0  0  0
 13 14  1  0  0  0  0
 14 15  2  0  0  0  0
 14 51  1  0  0  0  0
 15 16  1  0  0  0  0
 15 22  1  0  0  0  0
 16 17  2  0  0  0  0
 16 52  1  0  0  0  0
 17 18  1  0  0  0  0
 17 53  1  0  0  0  0
 18 19  1  0  0  0  0
 19 20  1  0  0  0  0
 20 21  1  0  0  0  0
 20 54  1  0  0  0  0
 20 55  1  0  0  0  0
 21 56  1  0  0  0  0
 21 57  1  0  0  0  0
 21 58  1  0  0  0  0
 22 23  2  0  0  0  0
 22 24  2  0  0  0  0
 22 25  1  0  0  0  0
 25 30  1  0  0  0  0
 25 26  1  0  0  0  0
 26 27  1  0  0  0  0
 26 59  1  0  0  0  0
 26 60  1  0  0  0  0
 27 28  1  0  0  0  0
 27 61  1  0  0  0  0
 27 62  1  0  0  0  0
 28 29  1  0  0  0  0
 28 31  1  0  0  0  0
 29 30  1  0  0  0  0
 29 63  1  0  0  0  0
 29 64  1  0  0  0  0
 30 65  1  0  0  0  0
 30 66  1  0  0  0  0
 31 32  1  0  0  0  0
 31 67  1  0  0  0  0
 31 68  1  0  0  0  0
 32 37  2  0  0  0  0
 32 33  1  0  0  0  0
 33 34  2  0  0  0  0
 33 69  1  0  0  0  0
 34 35  1  0  0  0  0
 34 70  1  0  0  0  0
 35 40  1  0  0  0  0
 35 36  2  0  0  0  0
 36 37  1  0  0  0  0
 36 38  1  0  0  0  0
 37 71  1  0  0  0  0
 38 39  1  0  0  0  0
 39 40  1  0  0  0  0
 39 72  1  0  0  0  0
 39 73  1  0  0  0  0
 41 42  1  0  0  0  0
 41 43  1  0  0  0  0
 43 74  1  0  0  0  0
 43 75  1  0  0  0  0
 43 76  1  0  0  0  0
M  END
$$$$
CHEMBL511065
  -OEChem-07121202283D

 76 81  0     0  0  0  0  0  0999 V2000
   -0.0187    1.5258    0.0104 C   0  0  0  0  0  0  0  0  0  0  0  0
    0.0021   -0.0041    0.0020 C   0  0  0  0  0  0  0  0  0  0  0  0
    0.7182   -0.4975   -1.2568 C   0  0  0  0  0  0  0  0  0  0  0  0
    0.7386   -2.0043   -1.2651 C   0  0  0  0  0  0  0  0  0  0  0  0
    1.7371   -2.8090   -0.7054 C   0  0  0  0  0  0  0  0  0  0  0  0
    1.3740   -4.1350   -0.9304 C   0  0  0  0  0  0  0  0  0  0  0  0
    2.2608   -5.1909   -0.4384 C   0  0  0  0  0  0  0  0  0  0  0  0
    1.9844   -6.3672   -0.6123 O   0  0  0  0  0  0  0  0  0  0  0  0
    3.3842   -4.8398    0.2075 N   0  0  0  0  0  0  0  0  0  0  0  0
    3.6977   -3.5767    0.4033 C   0  0  0  0  0  0  0  0  0  0  0  0
    2.9154   -2.5523   -0.0295 N   0  0  0  0  0  0  0  0  0  0  0  0
    4.9471   -3.2598    1.1207 C   0  0  0  0  0  0  0  0  0  0  0  0
    5.3072   -1.9297    1.3507 C   0  0  0  0  0  0  0  0  0  0  0  0
    6.4754   -1.6404    2.0219 C   0  0  0  0  0  0  0  0  0  0  0  0
    7.2958   -2.6630    2.4697 C   0  0  0  0  0  0  0  0  0  0  0  0
    6.9520   -3.9820    2.2486 C   0  0  0  0  0  0  0  0  0  0  0  0
    5.7769   -4.2915    1.5805 C   0  0  0  0  0  0  0  0  0  0  0  0
    5.4349   -5.5872    1.3679 O   0  0  0  0  0  0  0  0  0  0  0  0
    6.3296   -6.5843    1.8652 C   0  0  0  0  0  0  0  0  0  0  0  0
    5.7806   -7.9733    1.5332 C   0  0  0  0  0  0  0  0  0  0  0  0
    6.9282    0.0377    2.3112 S   0  0  0  0  0  0  0  0  0  0  0  0
    8.3389    0.0542    2.4813 O   0  0  0  0  0  0  0  0  0  0  0  0
    6.2716    0.8126    1.3174 O   0  0  0  0  0  0  0  0  0  0  0  0
    6.2708    0.4783    3.7659 N   0  0  0  0  0  0  0  0  0  0  0  0
    4.9211    1.0580    3.8397 C   0  0  0  0  0  0  0  0  0  0  0  0
    4.9920    2.3547    4.6532 C   0  0  0  0  0  0  0  0  0  0  0  0
    5.6222    2.0806    5.9515 N   0  0  0  0  0  0  0  0  0  0  0  0
    7.0095    1.6270    5.7853 C   0  0  0  0  0  0  0  0  0  0  0  0
    7.0189    0.2948    5.0189 C   0  0  0  0  0  0  0  0  0  0  0  0
    5.5545    3.2572    6.8284 C   0  0  0  0  0  0  0  0  0  0  0  0
    5.9826    2.8713    8.2208 C   0  0  0  0  0  0  0  0  0  0  0  0
    5.0446    2.4197    9.1305 C   0  0  0  0  0  0  0  0  0  0  0  0
    5.4324    2.0640   10.4088 C   0  0  0  0  0  0  0  0  0  0  0  0
    6.7634    2.1600   10.7815 C   0  0  0  0  0  0  0  0  0  0  0  0
    7.7082    2.6150    9.8652 C   0  0  0  0  0  0  0  0  0  0  0  0
    7.3132    2.9643    8.5840 C   0  0  0  0  0  0  0  0  0  0  0  0
    8.9333    2.6186   10.4672 O   0  0  0  0  0  0  0  0  0  0  0  0
    8.6673    2.5510   11.8807 C   0  0  0  0  0  0  0  0  0  0  0  0
    7.3964    1.8785   11.9576 O   0  0  0  0  0  0  0  0  0  0  0  0
    0.1890   -4.1166   -1.6070 N   0  0  0  0  0  0  0  0  0  0  0  0
   -0.1769   -2.7759   -1.7917 N   0  0  0  0  0  0  0  0  0  0  0  0
   -0.5677   -5.2881   -2.0556 C   0  0  0  0  0  0  0  0  0  0  0  0
    1.0039    1.9031    0.0027 H   0  0  0  0  0  0  0  0  0  0  0  0
   -0.5459    1.8868   -0.8726 H   0  0  0  0  0  0  0  0  0  0  0  0
   -0.5289    1.8773    0.9072 H   0  0  0  0  0  0  0  0  0  0  0  0
    0.5293   -0.3651    0.8851 H   0  0  0  0  0  0  0  0  0  0  0  0
   -1.0205   -0.3814    0.0098 H   0  0  0  0  0  0  0  0  0  0  0  0
    0.1910   -0.1364   -2.1398 H   0  0  0  0  0  0  0  0  0  0  0  0
    1.7408   -0.1202   -1.2645 H   0  0  0  0  0  0  0  0  0  0  0  0
    4.6710   -1.1293    1.0027 H   0  0  0  0  0  0  0  0  0  0  0  0
    8.2097   -2.4272    2.9946 H   0  0  0  0  0  0  0  0  0  0  0  0
    7.5970   -4.7736    2.6002 H   0  0  0  0  0  0  0  0  0  0  0  0
    7.3075   -6.4595    1.4002 H   0  0  0  0  0  0  0  0  0  0  0  0
    6.4252   -6.4802    2.9460 H   0  0  0  0  0  0  0  0  0  0  0  0
    4.8027   -8.0982    1.9981 H   0  0  0  0  0  0  0  0  0  0  0  0
    5.6850   -8.0774    0.4524 H   0  0  0  0  0  0  0  0  0  0  0  0
    6.4630   -8.7339    1.9125 H   0  0  0  0  0  0  0  0  0  0  0  0
    4.5606    1.2757    2.8344 H   0  0  0  0  0  0  0  0  0  0  0  0
    4.2470    0.3550    4.3292 H   0  0  0  0  0  0  0  0  0  0  0  0
    5.5829    3.0926    4.1106 H   0  0  0  0  0  0  0  0  0  0  0  0
    3.9848    2.7401    4.8119 H   0  0  0  0  0  0  0  0  0  0  0  0
    7.5723    2.3751    5.2270 H   0  0  0  0  0  0  0  0  0  0  0  0
    7.4655    1.4847    6.7651 H   0  0  0  0  0  0  0  0  0  0  0  0
    6.5425   -0.4800    5.6195 H   0  0  0  0  0  0  0  0  0  0  0  0
    8.0459    0.0078    4.7935 H   0  0  0  0  0  0  0  0  0  0  0  0
    6.2175    4.0336    6.4465 H   0  0  0  0  0  0  0  0  0  0  0  0
    4.5317    3.6331    6.8538 H   0  0  0  0  0  0  0  0  0  0  0  0
    4.0065    2.3449    8.8420 H   0  0  0  0  0  0  0  0  0  0  0  0
    4.6975    1.7115   11.1174 H   0  0  0  0  0  0  0  0  0  0  0  0
    8.0445    3.3132    7.8699 H   0  0  0  0  0  0  0  0  0  0  0  0
    9.4385    1.9717   12.3883 H   0  0  0  0  0  0  0  0  0  0  0  0
    8.5971    3.5523   12.3055 H   0  0  0  0  0  0  0  0  0  0  0  0
   -1.2651   -5.5910   -1.2745 H   0  0  0  0  0  0  0  0  0  0  0  0
   -1.1218   -5.0381   -2.9604 H   0  0  0  0  0  0  0  0  0  0  0  0
    0.1207   -6.1067   -2.2656 H   0  0  0  0  0  0  0  0  0  0  0  0
    3.1857   -1.6357    0.1370 H   0  0  0  0  0  0  0  0  0  0  0  0
  1  2  1  0  0  0  0
  1 43  1  0  0  0  0
  1 44  1  0  0  0  0
  1 45  1  0  0  0  0
  2  3  1  0  0  0  0
  2 46  1  0  0  0  0
  2 47  1  0  0  0  0
  3  4  1  0  0  0  0
  3 48  1  0  0  0  0
  3 49  1  0  0  0  0
  4 41  2  0  0  0  0
  4  5  1  0  0  0  0
  5 11  1  0  0  0  0
  5  6  2  0  0  0  0
  6  7  1  0  0  0  0
  6 40  1  0  0  0  0
  7  8  2  0  0  0  0
  7  9  1  0  0  0  0
  9 10  2  0  0  0  0
 10 11  1  0  0  0  0
 10 12  1  0  0  0  0
 11 76  1  0  0  0  0
 12 17  2  0  0  0  0
 12 13  1  0  0  0  0
 13 14  2  0  0  0  0
 13 50  1  0  0  0  0
 14 15  1  0  0  0  0
 14 21  1  0  0  0  0
 15 16  2  0  0  0  0
 15 51  1  0  0  0  0
 16 17  1  0  0  0  0
 16 52  1  0  0  0  0
 17 18  1  0  0  0  0
 18 19  1  0  0  0  0
 19 20  1  0  0  0  0
 19 53  1  0  0  0  0
 19 54  1  0  0  0  0
 20 55  1  0  0  0  0
 20 56  1  0  0  0  0
 20 57  1  0  0  0  0
 21 22  2  0  0  0  0
 21 23  2  0  0  0  0
 21 24  1  0  0  0  0
 24 29  1  0  0  0  0
 24 25  1  0  0  0  0
 25 26  1  0  0  0  0
 25 58  1  0  0  0  0
 25 59  1  0  0  0  0
 26 27  1  0  0  0  0
 26 60  1  0  0  0  0
 26 61  1  0  0  0  0
 27 28  1  0  0  0  0
 27 30  1  0  0  0  0
 28 29  1  0  0  0  0
 28 62  1  0  0  0  0
 28 63  1  0  0  0  0
 29 64  1  0  0  0  0
 29 65  1  0  0  0  0
 30 31  1  0  0  0  0
 30 66  1  0  0  0  0
 30 67  1  0  0  0  0
 31 36  2  0  0  0  0
 31 32  1  0  0  0  0
 32 33  2  0  0  0  0
 32 68  1  0  0  0  0
 33 34  1  0  0  0  0
 33 69  1  0  0  0  0
 34 39  1  0  0  0  0
 34 35  2  0  0  0  0
 35 36  1  0  0  0  0
 35 37  1  0  0  0  0
 36 70  1  0  0  0  0
 37 38  1  0  0  0  0
 38 39  1  0  0  0  0
 38 71  1  0  0  0  0
 38 72  1  0  0  0  0
 40 41  1  0  0  0  0
 40 42  1  0  0  0  0
 42 73  1  0  0  0  0
 42 74  1  0  0  0  0
 42 75  1  0  0  0  0
M  END
$$$$
CHEMBL511065
  -OEChem-07121202283D

 75 80  0     0  0  0  0  0  0999 V2000
   -0.0187    1.5258    0.0104 C   0  0  0  0  0  0  0  0  0  0  0  0
    0.0021   -0.0041    0.0020 C   0  0  0  0  0  0  0  0  0  0  0  0
    0.7182   -0.4975   -1.2568 C   0  0  0  0  0  0  0  0  0  0  0  0
    0.7386   -2.0043   -1.2651 C   0  0  0  0  0  0  0  0  0  0  0  0
    1.7462   -2.8166   -0.7003 C   0  0  0  0  0  0  0  0  0  0  0  0
    1.3706   -4.1533   -0.9326 C   0  0  0  0  0  0  0  0  0  0  0  0
    2.2091   -5.1744   -0.4677 C   0  0  0  0  0  0  0  0  0  0  0  0
    1.8896   -6.4757   -0.6680 O   0  5  0  0  0  0  0  0  0  0  0  0
    3.3211   -4.8425    0.1714 N   0  0  0  0  0  0  0  0  0  0  0  0
    3.6455   -3.5680    0.3736 C   0  0  0  0  0  0  0  0  0  0  0  0
    2.8863   -2.5711   -0.0459 N   0  0  0  0  0  0  0  0  0  0  0  0
    4.9018   -3.2556    1.0949 C   0  0  0  0  0  0  0  0  0  0  0  0
    5.2652   -1.9301    1.3266 C   0  0  0  0  0  0  0  0  0  0  0  0
    6.4358   -1.6447    1.9985 C   0  0  0  0  0  0  0  0  0  0  0  0
    7.2520   -2.6702    2.4440 C   0  0  0  0  0  0  0  0  0  0  0  0
    6.9019   -3.9875    2.2200 C   0  0  0  0  0  0  0  0  0  0  0  0
    5.7257   -4.2895    1.5513 C   0  0  0  0  0  0  0  0  0  0  0  0
    5.3775   -5.5841    1.3354 O   0  0  0  0  0  0  0  0  0  0  0  0
    6.2678   -6.5865    1.8301 C   0  0  0  0  0  0  0  0  0  0  0  0
    5.7126   -7.9722    1.4947 C   0  0  0  0  0  0  0  0  0  0  0  0
    6.8940    0.0315    2.2902 S   0  0  0  0  0  0  0  0  0  0  0  0
    8.3048    0.0432    2.4598 O   0  0  0  0  0  0  0  0  0  0  0  0
    6.2395    0.8100    1.2978 O   0  0  0  0  0  0  0  0  0  0  0  0
    6.2385    0.4720    3.7457 N   0  0  0  0  0  0  0  0  0  0  0  0
    4.8907    1.0559    3.8209 C   0  0  0  0  0  0  0  0  0  0  0  0
    4.9661    2.3511    4.6363 C   0  0  0  0  0  0  0  0  0  0  0  0
    5.5958    2.0731    5.9340 N   0  0  0  0  0  0  0  0  0  0  0  0
    6.9816    1.6154    5.7666 C   0  0  0  0  0  0  0  0  0  0  0  0
    6.9864    0.2843    4.9982 C   0  0  0  0  0  0  0  0  0  0  0  0
    5.5322    3.2487    6.8126 C   0  0  0  0  0  0  0  0  0  0  0  0
    5.9595    2.8593    8.2044 C   0  0  0  0  0  0  0  0  0  0  0  0
    5.0204    2.4093    9.1137 C   0  0  0  0  0  0  0  0  0  0  0  0
    5.4076    2.0505   10.3913 C   0  0  0  0  0  0  0  0  0  0  0  0
    6.7389    2.1417   10.7637 C   0  0  0  0  0  0  0  0  0  0  0  0
    7.6849    2.5950    9.8477 C   0  0  0  0  0  0  0  0  0  0  0  0
    7.2905    2.9474    8.5672 C   0  0  0  0  0  0  0  0  0  0  0  0
    8.9102    2.5938   10.4493 O   0  0  0  0  0  0  0  0  0  0  0  0
    8.6445    2.5249   11.8627 C   0  0  0  0  0  0  0  0  0  0  0  0
    7.3715    1.8564   11.9392 O   0  0  0  0  0  0  0  0  0  0  0  0
    0.1819   -4.1166   -1.6111 N   0  0  0  0  0  0  0  0  0  0  0  0
   -0.1735   -2.7733   -1.7897 N   0  0  0  0  0  0  0  0  0  0  0  0
   -0.5863   -5.2783   -2.0657 C   0  0  0  0  0  0  0  0  0  0  0  0
    1.0039    1.9031    0.0027 H   0  0  0  0  0  0  0  0  0  0  0  0
   -0.5459    1.8868   -0.8726 H   0  0  0  0  0  0  0  0  0  0  0  0
   -0.5289    1.8773    0.9072 H   0  0  0  0  0  0  0  0  0  0  0  0
    0.5293   -0.3651    0.8851 H   0  0  0  0  0  0  0  0  0  0  0  0
   -1.0205   -0.3814    0.0098 H   0  0  0  0  0  0  0  0  0  0  0  0
    0.1910   -0.1364   -2.1398 H   0  0  0  0  0  0  0  0  0  0  0  0
    1.7408   -0.1202   -1.2645 H   0  0  0  0  0  0  0  0  0  0  0  0
    4.6312   -1.1273    0.9803 H   0  0  0  0  0  0  0  0  0  0  0  0
    8.1671   -2.4391    2.9690 H   0  0  0  0  0  0  0  0  0  0  0  0
    7.5432   -4.7831    2.5697 H   0  0  0  0  0  0  0  0  0  0  0  0
    7.2462   -6.4649    1.3653 H   0  0  0  0  0  0  0  0  0  0  0  0
    6.3640   -6.4855    2.9111 H   0  0  0  0  0  0  0  0  0  0  0  0
    4.7342   -8.0938    1.9595 H   0  0  0  0  0  0  0  0  0  0  0  0
    5.6163   -8.0732    0.4137 H   0  0  0  0  0  0  0  0  0  0  0  0
    6.3916   -8.7368    1.8721 H   0  0  0  0  0  0  0  0  0  0  0  0
    4.5305    1.2763    2.8160 H   0  0  0  0  0  0  0  0  0  0  0  0
    4.2145    0.3544    4.3096 H   0  0  0  0  0  0  0  0  0  0  0  0
    5.5591    3.0880    4.0946 H   0  0  0  0  0  0  0  0  0  0  0  0
    3.9602    2.7395    4.7959 H   0  0  0  0  0  0  0  0  0  0  0  0
    7.5466    2.3624    5.2092 H   0  0  0  0  0  0  0  0  0  0  0  0
    7.4375    1.4701    6.7460 H   0  0  0  0  0  0  0  0  0  0  0  0
    6.5078   -0.4899    5.5979 H   0  0  0  0  0  0  0  0  0  0  0  0
    8.0125   -0.0057    4.7720 H   0  0  0  0  0  0  0  0  0  0  0  0
    6.1976    4.0234    6.4317 H   0  0  0  0  0  0  0  0  0  0  0  0
    4.5106    3.6278    6.8389 H   0  0  0  0  0  0  0  0  0  0  0  0
    3.9820    2.3383    8.8254 H   0  0  0  0  0  0  0  0  0  0  0  0
    4.6718    1.6993   11.0997 H   0  0  0  0  0  0  0  0  0  0  0  0
    8.0227    3.2951    7.8533 H   0  0  0  0  0  0  0  0  0  0  0  0
    9.4141    1.9424   12.3692 H   0  0  0  0  0  0  0  0  0  0  0  0
    8.5777    3.5258   12.2891 H   0  0  0  0  0  0  0  0  0  0  0  0
   -1.2865   -5.5786   -1.2862 H   0  0  0  0  0  0  0  0  0  0  0  0
   -1.1380   -5.0182   -2.9691 H   0  0  0  0  0  0  0  0  0  0  0  0
    0.0940   -6.1025   -2.2801 H   0  0  0  0  0  0  0  0  0  0  0  0
  1  2  1  0  0  0  0
  1 43  1  0  0  0  0
  1 44  1  0  0  0  0
  1 45  1  0  0  0  0
  2  3  1  0  0  0  0
  2 46  1  0  0  0  0
  2 47  1  0  0  0  0
  3  4  1  0  0  0  0
  3 48  1  0  0  0  0
  3 49  1  0  0  0  0
  4 41  2  0  0  0  0
  4  5  1  0  0  0  0
  5 11  2  0  0  0  0
  5  6  1  0  0  0  0
  6  7  2  0  0  0  0
  6 40  1  0  0  0  0
  7  8  1  0  0  0  0
  7  9  1  0  0  0  0
  9 10  2  0  0  0  0
 10 11  1  0  0  0  0
 10 12  1  0  0  0  0
 12 17  2  0  0  0  0
 12 13  1  0  0  0  0
 13 14  2  0  0  0  0
 13 50  1  0  0  0  0
 14 15  1  0  0  0  0
 14 21  1  0  0  0  0
 15 16  2  0  0  0  0
 15 51  1  0  0  0  0
 16 17  1  0  0  0  0
 16 52  1  0  0  0  0
 17 18  1  0  0  0  0
 18 19  1  0  0  0  0
 19 20  1  0  0  0  0
 19 53  1  0  0  0  0
 19 54  1  0  0  0  0
 20 55  1  0  0  0  0
 20 56  1  0  0  0  0
 20 57  1  0  0  0  0
 21 22  2  0  0  0  0
 21 23  2  0  0  0  0
 21 24  1  0  0  0  0
 24 29  1  0  0  0  0
 24 25  1  0  0  0  0
 25 26  1  0  0  0  0
 25 58  1  0  0  0  0
 25 59  1  0  0  0  0
 26 27  1  0  0  0  0
 26 60  1  0  0  0  0
 26 61  1  0  0  0  0
 27 28  1  0  0  0  0
 27 30  1  0  0  0  0
 28 29  1  0  0  0  0
 28 62  1  0  0  0  0
 28 63  1  0  0  0  0
 29 64  1  0  0  0  0
 29 65  1  0  0  0  0
 30 31  1  0  0  0  0
 30 66  1  0  0  0  0
 30 67  1  0  0  0  0
 31 36  2  0  0  0  0
 31 32  1  0  0  0  0
 32 33  2  0  0  0  0
 32 68  1  0  0  0  0
 33 34  1  0  0  0  0
 33 69  1  0  0  0  0
 34 39  1  0  0  0  0
 34 35  2  0  0  0  0
 35 36  1  0  0  0  0
 35 37  1  0  0  0  0
 36 70  1  0  0  0  0
 37 38  1  0  0  0  0
 38 39  1  0  0  0  0
 38 71  1  0  0  0  0
 38 72  1  0  0  0  0
 40 41  1  0  0  0  0
 40 42  1  0  0  0  0
 42 73  1  0  0  0  0
 42 74  1  0  0  0  0
 42 75  1  0  0  0  0
M  CHG  1   8  -1
M  END
$$$$
CHEMBL513873
  -OEChem-07121202283D

 76 80  0     0  0  0  0  0  0999 V2000
   -0.0187    1.5258    0.0104 C   0  0  0  0  0  0  0  0  0  0  0  0
    0.0021   -0.0041    0.0020 C   0  0  0  0  0  0  0  0  0  0  0  0
    0.7182   -0.4975   -1.2568 C   0  0  0  0  0  0  0  0  0  0  0  0
    0.7386   -2.0043   -1.2651 C   0  0  0  0  0  0  0  0  0  0  0  0
    1.7436   -2.8145   -0.7017 C   0  0  0  0  0  0  0  0  0  0  0  0
    1.3716   -4.1454   -0.9309 C   0  0  0  0  0  0  0  0  0  0  0  0
    2.2155   -5.1793   -0.4631 C   0  0  0  0  0  0  0  0  0  0  0  0
    1.9272   -6.3498   -0.6430 O   0  0  0  0  0  0  0  0  0  0  0  0
    3.3497   -4.8379    0.1877 N   0  0  0  0  0  0  0  0  0  0  0  0
    3.9439   -5.5300    0.5176 H   0  0  0  0  0  0  0  0  0  0  0  0
    3.6639   -3.5203    0.3833 C   0  0  0  0  0  0  0  0  0  0  0  0
    2.8908   -2.5515   -0.0437 N   0  0  0  0  0  0  0  0  0  0  0  0
    4.9101   -3.1798    1.0980 C   0  0  0  0  0  0  0  0  0  0  0  0
    5.7536   -4.1922    1.5597 C   0  0  0  0  0  0  0  0  0  0  0  0
    6.9158   -3.8678    2.2265 C   0  0  0  0  0  0  0  0  0  0  0  0
    7.2508   -2.5412    2.4411 C   0  0  0  0  0  0  0  0  0  0  0  0
    6.4250   -1.5305    1.9894 C   0  0  0  0  0  0  0  0  0  0  0  0
    5.2556   -1.8391    1.3116 C   0  0  0  0  0  0  0  0  0  0  0  0
    4.4461   -0.8467    0.8623 O   0  0  0  0  0  0  0  0  0  0  0  0
    4.8632    0.4961    1.1168 C   0  0  0  0  0  0  0  0  0  0  0  0
    3.8319    1.4685    0.5407 C   0  0  0  0  0  0  0  0  0  0  0  0
    7.9793   -5.1464    2.8085 S   0  0  0  0  0  0  0  0  0  0  0  0
    8.7312   -4.5930    3.8798 O   0  0  0  0  0  0  0  0  0  0  0  0
    7.1730   -6.3063    2.9631 O   0  0  0  0  0  0  0  0  0  0  0  0
    9.0568   -5.4772    1.5953 N   0  0  0  0  0  0  0  0  0  0  0  0
    8.7556   -6.4921    0.5742 C   0  0  0  0  0  0  0  0  0  0  0  0
    8.9742   -5.8704   -0.8093 C   0  0  0  0  0  0  0  0  0  0  0  0
   10.3268   -5.3015   -0.8788 N   0  0  0  0  0  0  0  0  0  0  0  0
   10.4964   -4.2104    0.0900 C   0  0  0  0  0  0  0  0  0  0  0  0
   10.3376   -4.7598    1.5068 C   0  0  0  0  0  0  0  0  0  0  0  0
   10.6381   -4.8489   -2.2412 C   0  0  0  0  0  0  0  0  0  0  0  0
   10.5546   -6.0349   -3.2042 C   0  0  0  0  0  0  0  0  0  0  0  0
   10.8788   -5.5635   -4.6232 C   0  0  0  0  0  0  0  0  0  0  0  0
   12.2922   -4.9787   -4.6558 C   0  0  0  0  0  0  0  0  0  0  0  0
   12.3758   -3.7927   -3.6929 C   0  0  0  0  0  0  0  0  0  0  0  0
   12.0515   -4.2640   -2.2739 C   0  0  0  0  0  0  0  0  0  0  0  0
    0.1842   -4.1164   -1.6082 N   0  0  0  0  0  0  0  0  0  0  0  0
   -0.1751   -2.7746   -1.7907 N   0  0  0  0  0  0  0  0  0  0  0  0
   -0.5794   -5.2824   -2.0596 C   0  0  0  0  0  0  0  0  0  0  0  0
    1.0039    1.9031    0.0027 H   0  0  0  0  0  0  0  0  0  0  0  0
   -0.5459    1.8868   -0.8726 H   0  0  0  0  0  0  0  0  0  0  0  0
   -0.5289    1.8773    0.9072 H   0  0  0  0  0  0  0  0  0  0  0  0
    0.5293   -0.3651    0.8851 H   0  0  0  0  0  0  0  0  0  0  0  0
   -1.0205   -0.3814    0.0098 H   0  0  0  0  0  0  0  0  0  0  0  0
    0.1910   -0.1364   -2.1398 H   0  0  0  0  0  0  0  0  0  0  0  0
    1.7408   -0.1202   -1.2645 H   0  0  0  0  0  0  0  0  0  0  0  0
    5.4957   -5.2279    1.3950 H   0  0  0  0  0  0  0  0  0  0  0  0
    8.1628   -2.2958    2.9650 H   0  0  0  0  0  0  0  0  0  0  0  0
    6.6926   -0.4983    2.1608 H   0  0  0  0  0  0  0  0  0  0  0  0
    4.9489    0.6524    2.1922 H   0  0  0  0  0  0  0  0  0  0  0  0
    5.8306    0.6715    0.6460 H   0  0  0  0  0  0  0  0  0  0  0  0
    3.7463    1.3123   -0.5346 H   0  0  0  0  0  0  0  0  0  0  0  0
    2.8646    1.2931    1.0115 H   0  0  0  0  0  0  0  0  0  0  0  0
    4.1502    2.4927    0.7349 H   0  0  0  0  0  0  0  0  0  0  0  0
    9.4199   -7.3470    0.7005 H   0  0  0  0  0  0  0  0  0  0  0  0
    7.7185   -6.8131    0.6717 H   0  0  0  0  0  0  0  0  0  0  0  0
    8.8627   -6.6382   -1.5748 H   0  0  0  0  0  0  0  0  0  0  0  0
    8.2393   -5.0824   -0.9741 H   0  0  0  0  0  0  0  0  0  0  0  0
   11.4890   -3.7744   -0.0233 H   0  0  0  0  0  0  0  0  0  0  0  0
    9.7403   -3.4456   -0.0874 H   0  0  0  0  0  0  0  0  0  0  0  0
   10.3460   -3.9360    2.2206 H   0  0  0  0  0  0  0  0  0  0  0  0
   11.1569   -5.4449    1.7245 H   0  0  0  0  0  0  0  0  0  0  0  0
    9.9216   -4.0848   -2.5429 H   0  0  0  0  0  0  0  0  0  0  0  0
   11.2710   -6.7990   -2.9026 H   0  0  0  0  0  0  0  0  0  0  0  0
    9.5476   -6.4516   -3.1810 H   0  0  0  0  0  0  0  0  0  0  0  0
   10.8193   -6.4085   -5.3092 H   0  0  0  0  0  0  0  0  0  0  0  0
   10.1624   -4.7995   -4.9248 H   0  0  0  0  0  0  0  0  0  0  0  0
   13.0087   -5.7427   -4.3542 H   0  0  0  0  0  0  0  0  0  0  0  0
   12.5232   -4.6428   -5.6667 H   0  0  0  0  0  0  0  0  0  0  0  0
   13.3827   -3.3760   -3.7161 H   0  0  0  0  0  0  0  0  0  0  0  0
   11.6593   -3.0286   -3.9945 H   0  0  0  0  0  0  0  0  0  0  0  0
   12.1110   -3.4191   -1.5878 H   0  0  0  0  0  0  0  0  0  0  0  0
   12.7679   -5.0281   -1.9722 H   0  0  0  0  0  0  0  0  0  0  0  0
   -1.2781   -5.5834   -1.2791 H   0  0  0  0  0  0  0  0  0  0  0  0
   -1.1323   -5.0268   -2.9634 H   0  0  0  0  0  0  0  0  0  0  0  0
    0.1042   -6.1043   -2.2721 H   0  0  0  0  0  0  0  0  0  0  0  0
  1  2  1  0  0  0  0
  1 40  1  0  0  0  0
  1 41  1  0  0  0  0
  1 42  1  0  0  0  0
  2  3  1  0  0  0  0
  2 43  1  0  0  0  0
  2 44  1  0  0  0  0
  3  4  1  0  0  0  0
  3 45  1  0  0  0  0
  3 46  1  0  0  0  0
  4 38  2  0  0  0  0
  4  5  1  0  0  0  0
  5 12  1  0  0  0  0
  5  6  2  0  0  0  0
  6  7  1  0  0  0  0
  6 37  1  0  0  0  0
  7  8  2  0  0  0  0
  7  9  1  0  0  0  0
  9 10  1  0  0  0  0
  9 11  1  0  0  0  0
 11 12  2  0  0  0  0
 11 13  1  0  0  0  0
 13 18  2  0  0  0  0
 13 14  1  0  0  0  0
 14 15  2  0  0  0  0
 14 47  1  0  0  0  0
 15 16  1  0  0  0  0
 15 22  1  0  0  0  0
 16 17  2  0  0  0  0
 16 48  1  0  0  0  0
 17 18  1  0  0  0  0
 17 49  1  0  0  0  0
 18 19  1  0  0  0  0
 19 20  1  0  0  0  0
 20 21  1  0  0  0  0
 20 50  1  0  0  0  0
 20 51  1  0  0  0  0
 21 52  1  0  0  0  0
 21 53  1  0  0  0  0
 21 54  1  0  0  0  0
 22 23  2  0  0  0  0
 22 24  2  0  0  0  0
 22 25  1  0  0  0  0
 25 30  1  0  0  0  0
 25 26  1  0  0  0  0
 26 27  1  0  0  0  0
 26 55  1  0  0  0  0
 26 56  1  0  0  0  0
 27 28  1  0  0  0  0
 27 57  1  0  0  0  0
 27 58  1  0  0  0  0
 28 29  1  0  0  0  0
 28 31  1  0  0  0  0
 29 30  1  0  0  0  0
 29 59  1  0  0  0  0
 29 60  1  0  0  0  0
 30 61  1  0  0  0  0
 30 62  1  0  0  0  0
 31 36  1  0  0  0  0
 31 32  1  0  0  0  0
 31 63  1  0  0  0  0
 32 33  1  0  0  0  0
 32 64  1  0  0  0  0
 32 65  1  0  0  0  0
 33 34  1  0  0  0  0
 33 66  1  0  0  0  0
 33 67  1  0  0  0  0
 34 35  1  0  0  0  0
 34 68  1  0  0  0  0
 34 69  1  0  0  0  0
 35 36  1  0  0  0  0
 35 70  1  0  0  0  0
 35 71  1  0  0  0  0
 36 72  1  0  0  0  0
 36 73  1  0  0  0  0
 37 38  1  0  0  0  0
 37 39  1  0  0  0  0
 39 74  1  0  0  0  0
 39 75  1  0  0  0  0
 39 76  1  0  0  0  0
M  END
$$$$
CHEMBL513873
  -OEChem-07121202283D

 76 80  0     0  0  0  0  0  0999 V2000
   -0.0187    1.5258    0.0104 C   0  0  0  0  0  0  0  0  0  0  0  0
    0.0021   -0.0041    0.0020 C   0  0  0  0  0  0  0  0  0  0  0  0
    0.7421   -0.5109    1.2415 C   0  0  0  0  0  0  0  0  0  0  0  0
    0.7625   -2.0177    1.2333 C   0  0  0  0  0  0  0  0  0  0  0  0
   -0.2174   -2.8570    1.8071 C   0  0  0  0  0  0  0  0  0  0  0  0
    0.1923   -4.1830    1.5712 C   0  0  0  0  0  0  0  0  0  0  0  0
   -0.6135   -5.2265    2.0444 C   0  0  0  0  0  0  0  0  0  0  0  0
   -0.2601   -6.5186    1.8419 O   0  5  0  0  0  0  0  0  0  0  0  0
   -1.7279   -4.9249    2.6943 N   0  0  0  0  0  0  0  0  0  0  0  0
   -2.0849   -3.6596    2.8995 C   0  0  0  0  0  0  0  0  0  0  0  0
   -1.3578   -2.6425    2.4719 N   0  0  0  0  0  0  0  0  0  0  0  0
   -3.3423   -3.3814    3.6330 C   0  0  0  0  0  0  0  0  0  0  0  0
   -3.7452   -2.0663    3.8582 C   0  0  0  0  0  0  0  0  0  0  0  0
   -4.9165   -1.8127    4.5415 C   0  0  0  0  0  0  0  0  0  0  0  0
   -5.6942   -2.8598    5.0050 C   0  0  0  0  0  0  0  0  0  0  0  0
   -5.3047   -4.1672    4.7876 C   0  0  0  0  0  0  0  0  0  0  0  0
   -4.1331   -4.4372    4.0974 C   0  0  0  0  0  0  0  0  0  0  0  0
   -3.7520   -5.7219    3.8780 O   0  0  0  0  0  0  0  0  0  0  0  0
   -4.6097   -6.7481    4.3815 C   0  0  0  0  0  0  0  0  0  0  0  0
   -4.0202   -8.1182    4.0407 C   0  0  0  0  0  0  0  0  0  0  0  0
   -5.4242   -0.1495    4.8259 S   0  0  0  0  0  0  0  0  0  0  0  0
   -6.2763   -0.1738    5.9628 O   0  0  0  0  0  0  0  0  0  0  0  0
   -4.2498    0.6486    4.7710 O   0  0  0  0  0  0  0  0  0  0  0  0
   -6.3641    0.3023    3.5395 N   0  0  0  0  0  0  0  0  0  0  0  0
   -5.7660    0.9196    2.3457 C   0  0  0  0  0  0  0  0  0  0  0  0
   -6.2700    0.1709    1.1075 C   0  0  0  0  0  0  0  0  0  0  0  0
   -7.7383    0.1547    1.1104 N   0  3  0  0  0  0  0  0  0  0  0  0
   -8.2277   -0.6128    2.2626 C   0  0  0  0  0  0  0  0  0  0  0  0
   -7.8200    0.0920    3.5557 C   0  0  0  0  0  0  0  0  0  0  0  0
   -8.2218   -0.4659   -0.1302 C   0  0  0  0  0  0  0  0  0  0  0  0
   -7.7221    0.3390   -1.3315 C   0  0  0  0  0  0  0  0  0  0  0  0
   -8.2258   -0.3074   -2.6236 C   0  0  0  0  0  0  0  0  0  0  0  0
   -9.7557   -0.3251   -2.6223 C   0  0  0  0  0  0  0  0  0  0  0  0
  -10.2554   -1.1301   -1.4210 C   0  0  0  0  0  0  0  0  0  0  0  0
   -9.7517   -0.4837   -0.1289 C   0  0  0  0  0  0  0  0  0  0  0  0
    1.3733   -4.1142    0.8819 N   0  0  0  0  0  0  0  0  0  0  0  0
    1.6847   -2.7617    0.6904 N   0  0  0  0  0  0  0  0  0  0  0  0
    2.1690   -5.2546    0.4209 C   0  0  0  0  0  0  0  0  0  0  0  0
    1.0039    1.9031    0.0027 H   0  0  0  0  0  0  0  0  0  0  0  0
   -0.5459    1.8868   -0.8726 H   0  0  0  0  0  0  0  0  0  0  0  0
   -0.5289    1.8773    0.9072 H   0  0  0  0  0  0  0  0  0  0  0  0
   -1.0205   -0.3814    0.0098 H   0  0  0  0  0  0  0  0  0  0  0  0
    0.5123   -0.3556   -0.8948 H   0  0  0  0  0  0  0  0  0  0  0  0
    1.7647   -0.1336    1.2338 H   0  0  0  0  0  0  0  0  0  0  0  0
    0.2319   -0.1594    2.1383 H   0  0  0  0  0  0  0  0  0  0  0  0
   -3.1409   -1.2466    3.4984 H   0  0  0  0  0  0  0  0  0  0  0  0
   -6.6098   -2.6537    5.5394 H   0  0  0  0  0  0  0  0  0  0  0  0
   -5.9157   -4.9798    5.1520 H   0  0  0  0  0  0  0  0  0  0  0  0
   -4.6980   -6.6494    5.4634 H   0  0  0  0  0  0  0  0  0  0  0  0
   -5.5956   -6.6533    3.9263 H   0  0  0  0  0  0  0  0  0  0  0  0
   -4.6745   -8.9009    4.4247 H   0  0  0  0  0  0  0  0  0  0  0  0
   -3.9320   -8.2168    2.9587 H   0  0  0  0  0  0  0  0  0  0  0  0
   -3.0344   -8.2130    4.4958 H   0  0  0  0  0  0  0  0  0  0  0  0
   -6.0634    1.9666    2.2868 H   0  0  0  0  0  0  0  0  0  0  0  0
   -4.6799    0.8469    2.4008 H   0  0  0  0  0  0  0  0  0  0  0  0
   -5.9139    0.6740    0.2085 H   0  0  0  0  0  0  0  0  0  0  0  0
   -5.8953   -0.8525    1.1240 H   0  0  0  0  0  0  0  0  0  0  0  0
   -9.3141   -0.6872    2.2148 H   0  0  0  0  0  0  0  0  0  0  0  0
   -7.7937   -1.6125    2.2442 H   0  0  0  0  0  0  0  0  0  0  0  0
   -8.0911   -0.5277    4.4104 H   0  0  0  0  0  0  0  0  0  0  0  0
   -8.3283    1.0540    3.6211 H   0  0  0  0  0  0  0  0  0  0  0  0
   -7.8467   -1.4872   -0.1957 H   0  0  0  0  0  0  0  0  0  0  0  0
   -8.0973    1.3603   -1.2660 H   0  0  0  0  0  0  0  0  0  0  0  0
   -6.6322    0.3516   -1.3325 H   0  0  0  0  0  0  0  0  0  0  0  0
   -7.8698    0.2660   -3.4795 H   0  0  0  0  0  0  0  0  0  0  0  0
   -7.8506   -1.3287   -2.6891 H   0  0  0  0  0  0  0  0  0  0  0  0
  -10.1308    0.6962   -2.5568 H   0  0  0  0  0  0  0  0  0  0  0  0
  -10.1145   -0.7856   -3.5428 H   0  0  0  0  0  0  0  0  0  0  0  0
  -11.3453   -1.1427   -1.4200 H   0  0  0  0  0  0  0  0  0  0  0  0
   -9.8802   -2.1514   -1.4865 H   0  0  0  0  0  0  0  0  0  0  0  0
  -10.1077   -1.0571    0.7270 H   0  0  0  0  0  0  0  0  0  0  0  0
  -10.1269    0.5377   -0.0634 H   0  0  0  0  0  0  0  0  0  0  0  0
    1.8484   -5.5400   -0.5811 H   0  0  0  0  0  0  0  0  0  0  0  0
    3.2230   -4.9776    0.4001 H   0  0  0  0  0  0  0  0  0  0  0  0
    2.0275   -6.0949    1.1007 H   0  0  0  0  0  0  0  0  0  0  0  0
   -8.0837    1.1010    1.1670 H   0  0  0  0  0  0  0  0  0  0  0  0
  1  2  1  0  0  0  0
  1 39  1  0  0  0  0
  1 40  1  0  0  0  0
  1 41  1  0  0  0  0
  2  3  1  0  0  0  0
  2 42  1  0  0  0  0
  2 43  1  0  0  0  0
  3  4  1  0  0  0  0
  3 44  1  0  0  0  0
  3 45  1  0  0  0  0
  4 37  2  0  0  0  0
  4  5  1  0  0  0  0
  5 11  2  0  0  0  0
  5  6  1  0  0  0  0
  6  7  2  0  0  0  0
  6 36  1  0  0  0  0
  7  8  1  0  0  0  0
  7  9  1  0  0  0  0
  9 10  2  0  0  0  0
 10 11  1  0  0  0  0
 10 12  1  0  0  0  0
 12 17  2  0  0  0  0
 12 13  1  0  0  0  0
 13 14  2  0  0  0  0
 13 46  1  0  0  0  0
 14 15  1  0  0  0  0
 14 21  1  0  0  0  0
 15 16  2  0  0  0  0
 15 47  1  0  0  0  0
 16 17  1  0  0  0  0
 16 48  1  0  0  0  0
 17 18  1  0  0  0  0
 18 19  1  0  0  0  0
 19 20  1  0  0  0  0
 19 49  1  0  0  0  0
 19 50  1  0  0  0  0
 20 51  1  0  0  0  0
 20 52  1  0  0  0  0
 20 53  1  0  0  0  0
 21 22  2  0  0  0  0
 21 23  2  0  0  0  0
 21 24  1  0  0  0  0
 24 29  1  0  0  0  0
 24 25  1  0  0  0  0
 25 26  1  0  0  0  0
 25 54  1  0  0  0  0
 25 55  1  0  0  0  0
 26 27  1  0  0  0  0
 26 56  1  0  0  0  0
 26 57  1  0  0  0  0
 27 28  1  0  0  0  0
 27 30  1  0  0  0  0
 27 76  1  0  0  0  0
 28 29  1  0  0  0  0
 28 58  1  0  0  0  0
 28 59  1  0  0  0  0
 29 60  1  0  0  0  0
 29 61  1  0  0  0  0
 30 35  1  0  0  0  0
 30 31  1  0  0  0  0
 30 62  1  0  0  0  0
 31 32  1  0  0  0  0
 31 63  1  0  0  0  0
 31 64  1  0  0  0  0
 32 33  1  0  0  0  0
 32 65  1  0  0  0  0
 32 66  1  0  0  0  0
 33 34  1  0  0  0  0
 33 67  1  0  0  0  0
 33 68  1  0  0  0  0
 34 35  1  0  0  0  0
 34 69  1  0  0  0  0
 34 70  1  0  0  0  0
 35 71  1  0  0  0  0
 35 72  1  0  0  0  0
 36 37  1  0  0  0  0
 36 38  1  0  0  0  0
 38 73  1  0  0  0  0
 38 74  1  0  0  0  0
 38 75  1  0  0  0  0
M  CHG  2   8  -1  27   1
M  END
$$$$
CHEMBL513873
  -OEChem-07121202283D

 75 79  0     0  0  0  0  0  0999 V2000
   -0.0187    1.5258    0.0104 C   0  0  0  0  0  0  0  0  0  0  0  0
    0.0021   -0.0041    0.0020 C   0  0  0  0  0  0  0  0  0  0  0  0
    0.7182   -0.4975   -1.2568 C   0  0  0  0  0  0  0  0  0  0  0  0
    0.7386   -2.0043   -1.2651 C   0  0  0  0  0  0  0  0  0  0  0  0
    1.7462   -2.8166   -0.7003 C   0  0  0  0  0  0  0  0  0  0  0  0
    1.3706   -4.1533   -0.9326 C   0  0  0  0  0  0  0  0  0  0  0  0
    2.2091   -5.1744   -0.4677 C   0  0  0  0  0  0  0  0  0  0  0  0
    1.8896   -6.4757   -0.6680 O   0  5  0  0  0  0  0  0  0  0  0  0
    3.3211   -4.8425    0.1714 N   0  0  0  0  0  0  0  0  0  0  0  0
    3.6455   -3.5680    0.3736 C   0  0  0  0  0  0  0  0  0  0  0  0
    2.8863   -2.5711   -0.0459 N   0  0  0  0  0  0  0  0  0  0  0  0
    4.9018   -3.2556    1.0949 C   0  0  0  0  0  0  0  0  0  0  0  0
    5.2652   -1.9301    1.3266 C   0  0  0  0  0  0  0  0  0  0  0  0
    6.4358   -1.6447    1.9985 C   0  0  0  0  0  0  0  0  0  0  0  0
    7.2520   -2.6702    2.4440 C   0  0  0  0  0  0  0  0  0  0  0  0
    6.9019   -3.9875    2.2200 C   0  0  0  0  0  0  0  0  0  0  0  0
    5.7257   -4.2895    1.5513 C   0  0  0  0  0  0  0  0  0  0  0  0
    5.3775   -5.5841    1.3354 O   0  0  0  0  0  0  0  0  0  0  0  0
    6.2678   -6.5865    1.8301 C   0  0  0  0  0  0  0  0  0  0  0  0
    5.7126   -7.9722    1.4947 C   0  0  0  0  0  0  0  0  0  0  0  0
    6.8940    0.0315    2.2902 S   0  0  0  0  0  0  0  0  0  0  0  0
    8.3048    0.0432    2.4598 O   0  0  0  0  0  0  0  0  0  0  0  0
    6.2395    0.8100    1.2978 O   0  0  0  0  0  0  0  0  0  0  0  0
    6.2385    0.4720    3.7457 N   0  0  0  0  0  0  0  0  0  0  0  0
    4.8907    1.0559    3.8209 C   0  0  0  0  0  0  0  0  0  0  0  0
    4.0814    0.2794    4.8651 C   0  0  0  0  0  0  0  0  0  0  0  0
    4.8202    0.2566    6.1346 N   0  0  0  0  0  0  0  0  0  0  0  0
    6.0970   -0.4564    5.9955 C   0  0  0  0  0  0  0  0  0  0  0  0
    6.9864    0.2843    4.9982 C   0  0  0  0  0  0  0  0  0  0  0  0
    4.0049   -0.3281    7.2077 C   0  0  0  0  0  0  0  0  0  0  0  0
    2.7346    0.5040    7.3942 C   0  0  0  0  0  0  0  0  0  0  0  0
    1.8855   -0.1050    8.5118 C   0  0  0  0  0  0  0  0  0  0  0  0
    2.6869   -0.1115    9.8152 C   0  0  0  0  0  0  0  0  0  0  0  0
    3.9572   -0.9437    9.6287 C   0  0  0  0  0  0  0  0  0  0  0  0
    4.8063   -0.3347    8.5111 C   0  0  0  0  0  0  0  0  0  0  0  0
    0.1819   -4.1166   -1.6111 N   0  0  0  0  0  0  0  0  0  0  0  0
   -0.1735   -2.7733   -1.7897 N   0  0  0  0  0  0  0  0  0  0  0  0
   -0.5863   -5.2783   -2.0657 C   0  0  0  0  0  0  0  0  0  0  0  0
    1.0039    1.9031    0.0027 H   0  0  0  0  0  0  0  0  0  0  0  0
   -0.5459    1.8868   -0.8726 H   0  0  0  0  0  0  0  0  0  0  0  0
   -0.5289    1.8773    0.9072 H   0  0  0  0  0  0  0  0  0  0  0  0
    0.5293   -0.3651    0.8851 H   0  0  0  0  0  0  0  0  0  0  0  0
   -1.0205   -0.3814    0.0098 H   0  0  0  0  0  0  0  0  0  0  0  0
    0.1910   -0.1364   -2.1398 H   0  0  0  0  0  0  0  0  0  0  0  0
    1.7408   -0.1202   -1.2645 H   0  0  0  0  0  0  0  0  0  0  0  0
    4.6312   -1.1273    0.9803 H   0  0  0  0  0  0  0  0  0  0  0  0
    8.1671   -2.4391    2.9690 H   0  0  0  0  0  0  0  0  0  0  0  0
    7.5432   -4.7831    2.5697 H   0  0  0  0  0  0  0  0  0  0  0  0
    7.2462   -6.4649    1.3653 H   0  0  0  0  0  0  0  0  0  0  0  0
    6.3640   -6.4855    2.9111 H   0  0  0  0  0  0  0  0  0  0  0  0
    6.3916   -8.7368    1.8721 H   0  0  0  0  0  0  0  0  0  0  0  0
    4.7342   -8.0938    1.9595 H   0  0  0  0  0  0  0  0  0  0  0  0
    5.6163   -8.0732    0.4137 H   0  0  0  0  0  0  0  0  0  0  0  0
    4.9611    2.1027    4.1165 H   0  0  0  0  0  0  0  0  0  0  0  0
    4.4036    0.9789    2.8489 H   0  0  0  0  0  0  0  0  0  0  0  0
    3.1176    0.7662    5.0139 H   0  0  0  0  0  0  0  0  0  0  0  0
    3.9239   -0.7416    4.5176 H   0  0  0  0  0  0  0  0  0  0  0  0
    6.5949   -0.5032    6.9640 H   0  0  0  0  0  0  0  0  0  0  0  0
    5.9114   -1.4672    5.6322 H   0  0  0  0  0  0  0  0  0  0  0  0
    7.8842   -0.3025    4.8041 H   0  0  0  0  0  0  0  0  0  0  0  0
    7.2621    1.2555    5.4091 H   0  0  0  0  0  0  0  0  0  0  0  0
    3.7342   -1.3501    6.9425 H   0  0  0  0  0  0  0  0  0  0  0  0
    3.0054    1.5260    7.6594 H   0  0  0  0  0  0  0  0  0  0  0  0
    2.1638    0.5087    6.4657 H   0  0  0  0  0  0  0  0  0  0  0  0
    0.9805    0.4878    8.6447 H   0  0  0  0  0  0  0  0  0  0  0  0
    1.6148   -1.1270    8.2466 H   0  0  0  0  0  0  0  0  0  0  0  0
    2.9576    0.9104   10.0804 H   0  0  0  0  0  0  0  0  0  0  0  0
    2.0819   -0.5454   10.6114 H   0  0  0  0  0  0  0  0  0  0  0  0
    4.5280   -0.9483   10.5572 H   0  0  0  0  0  0  0  0  0  0  0  0
    3.6864   -1.9656    9.3635 H   0  0  0  0  0  0  0  0  0  0  0  0
    5.7112   -0.9275    8.3782 H   0  0  0  0  0  0  0  0  0  0  0  0
    5.0770    0.6873    8.7763 H   0  0  0  0  0  0  0  0  0  0  0  0
   -1.2865   -5.5786   -1.2862 H   0  0  0  0  0  0  0  0  0  0  0  0
   -1.1380   -5.0182   -2.9691 H   0  0  0  0  0  0  0  0  0  0  0  0
    0.0940   -6.1025   -2.2801 H   0  0  0  0  0  0  0  0  0  0  0  0
  1  2  1  0  0  0  0
  1 39  1  0  0  0  0
  1 40  1  0  0  0  0
  1 41  1  0  0  0  0
  2  3  1  0  0  0  0
  2 42  1  0  0  0  0
  2 43  1  0  0  0  0
  3  4  1  0  0  0  0
  3 44  1  0  0  0  0
  3 45  1  0  0  0  0
  4 37  2  0  0  0  0
  4  5  1  0  0  0  0
  5 11  2  0  0  0  0
  5  6  1  0  0  0  0
  6  7  2  0  0  0  0
  6 36  1  0  0  0  0
  7  8  1  0  0  0  0
  7  9  1  0  0  0  0
  9 10  2  0  0  0  0
 10 11  1  0  0  0  0
 10 12  1  0  0  0  0
 12 17  2  0  0  0  0
 12 13  1  0  0  0  0
 13 14  2  0  0  0  0
 13 46  1  0  0  0  0
 14 15  1  0  0  0  0
 14 21  1  0  0  0  0
 15 16  2  0  0  0  0
 15 47  1  0  0  0  0
 16 17  1  0  0  0  0
 16 48  1  0  0  0  0
 17 18  1  0  0  0  0
 18 19  1  0  0  0  0
 19 20  1  0  0  0  0
 19 49  1  0  0  0  0
 19 50  1  0  0  0  0
 20 51  1  0  0  0  0
 20 52  1  0  0  0  0
 20 53  1  0  0  0  0
 21 22  2  0  0  0  0
 21 23  2  0  0  0  0
 21 24  1  0  0  0  0
 24 29  1  0  0  0  0
 24 25  1  0  0  0  0
 25 26  1  0  0  0  0
 25 54  1  0  0  0  0
 25 55  1  0  0  0  0
 26 27  1  0  0  0  0
 26 56  1  0  0  0  0
 26 57  1  0  0  0  0
 27 28  1  0  0  0  0
 27 30  1  0  0  0  0
 28 29  1  0  0  0  0
 28 58  1  0  0  0  0
 28 59  1  0  0  0  0
 29 60  1  0  0  0  0
 29 61  1  0  0  0  0
 30 35  1  0  0  0  0
 30 31  1  0  0  0  0
 30 62  1  0  0  0  0
 31 32  1  0  0  0  0
 31 63  1  0  0  0  0
 31 64  1  0  0  0  0
 32 33  1  0  0  0  0
 32 65  1  0  0  0  0
 32 66  1  0  0  0  0
 33 34  1  0  0  0  0
 33 67  1  0  0  0  0
 33 68  1  0  0  0  0
 34 35  1  0  0  0  0
 34 69  1  0  0  0  0
 34 70  1  0  0  0  0
 35 71  1  0  0  0  0
 35 72  1  0  0  0  0
 36 37  1  0  0  0  0
 36 38  1  0  0  0  0
 38 73  1  0  0  0  0
 38 74  1  0  0  0  0
 38 75  1  0  0  0  0
M  CHG  1   8  -1
M  END
$$$$
CHEMBL513873
  -OEChem-07121202283D

 77 81  0     0  0  0  0  0  0999 V2000
   -0.0187    1.5258    0.0104 C   0  0  0  0  0  0  0  0  0  0  0  0
    0.0021   -0.0041    0.0020 C   0  0  0  0  0  0  0  0  0  0  0  0
    0.7421   -0.5109    1.2415 C   0  0  0  0  0  0  0  0  0  0  0  0
    0.7625   -2.0177    1.2333 C   0  0  0  0  0  0  0  0  0  0  0  0
   -0.2150   -2.8548    1.8056 C   0  0  0  0  0  0  0  0  0  0  0  0
    0.1902   -4.1752    1.5714 C   0  0  0  0  0  0  0  0  0  0  0  0
   -0.6206   -5.2316    2.0475 C   0  0  0  0  0  0  0  0  0  0  0  0
   -0.3025   -6.3939    1.8644 O   0  0  0  0  0  0  0  0  0  0  0  0
   -1.7563   -4.9210    2.7109 N   0  0  0  0  0  0  0  0  0  0  0  0
   -2.3282   -5.6289    3.0467 H   0  0  0  0  0  0  0  0  0  0  0  0
   -2.1032   -3.6124    2.9116 C   0  0  0  0  0  0  0  0  0  0  0  0
   -1.3622   -2.6230    2.4750 N   0  0  0  0  0  0  0  0  0  0  0  0
   -3.3503   -3.3058    3.6401 C   0  0  0  0  0  0  0  0  0  0  0  0
   -4.1559   -4.3406    4.1193 C   0  0  0  0  0  0  0  0  0  0  0  0
   -5.3192   -4.0479    4.7987 C   0  0  0  0  0  0  0  0  0  0  0  0
   -5.6932   -2.7309    5.0080 C   0  0  0  0  0  0  0  0  0  0  0  0
   -4.9050   -1.6981    4.5390 C   0  0  0  0  0  0  0  0  0  0  0  0
   -3.7289   -1.9750    3.8592 C   0  0  0  0  0  0  0  0  0  0  0  0
   -2.9506   -0.9610    3.4028 O   0  0  0  0  0  0  0  0  0  0  0  0
   -3.4004    0.3701    3.6636 C   0  0  0  0  0  0  0  0  0  0  0  0
   -2.4013    1.3700    3.0781 C   0  0  0  0  0  0  0  0  0  0  0  0
   -6.3348   -5.3548    5.4029 S   0  0  0  0  0  0  0  0  0  0  0  0
   -7.6469   -4.8242    5.5294 O   0  0  0  0  0  0  0  0  0  0  0  0
   -6.0477   -6.4946    4.6044 O   0  0  0  0  0  0  0  0  0  0  0  0
   -5.8174   -5.7083    6.9358 N   0  0  0  0  0  0  0  0  0  0  0  0
   -4.7666   -6.7116    7.1668 C   0  0  0  0  0  0  0  0  0  0  0  0
   -3.6980   -6.0953    8.0758 C   0  0  0  0  0  0  0  0  0  0  0  0
   -4.3312   -5.5879    9.2996 N   0  3  0  0  0  0  0  0  0  0  0  0
   -5.2497   -4.4909    8.9696 C   0  0  0  0  0  0  0  0  0  0  0  0
   -6.3912   -5.0236    8.1045 C   0  0  0  0  0  0  0  0  0  0  0  0
   -3.2948   -5.0970   10.2176 C   0  0  0  0  0  0  0  0  0  0  0  0
   -2.3432   -6.2416   10.5715 C   0  0  0  0  0  0  0  0  0  0  0  0
   -1.2637   -5.7303   11.5276 C   0  0  0  0  0  0  0  0  0  0  0  0
   -1.9217   -5.2012   12.8036 C   0  0  0  0  0  0  0  0  0  0  0  0
   -2.8733   -4.0565   12.4497 C   0  0  0  0  0  0  0  0  0  0  0  0
   -3.9527   -4.5678   11.4935 C   0  0  0  0  0  0  0  0  0  0  0  0
    1.3696   -4.1140    0.8826 N   0  0  0  0  0  0  0  0  0  0  0  0
    1.6863   -2.7630    0.6895 N   0  0  0  0  0  0  0  0  0  0  0  0
    2.1603   -5.2589    0.4238 C   0  0  0  0  0  0  0  0  0  0  0  0
    1.0039    1.9031    0.0027 H   0  0  0  0  0  0  0  0  0  0  0  0
   -0.5459    1.8868   -0.8726 H   0  0  0  0  0  0  0  0  0  0  0  0
   -0.5289    1.8773    0.9072 H   0  0  0  0  0  0  0  0  0  0  0  0
   -1.0205   -0.3814    0.0098 H   0  0  0  0  0  0  0  0  0  0  0  0
    0.5123   -0.3556   -0.8948 H   0  0  0  0  0  0  0  0  0  0  0  0
    1.7647   -0.1336    1.2338 H   0  0  0  0  0  0  0  0  0  0  0  0
    0.2319   -0.1594    2.1383 H   0  0  0  0  0  0  0  0  0  0  0  0
   -3.8683   -5.3690    3.9577 H   0  0  0  0  0  0  0  0  0  0  0  0
   -6.6064   -2.5102    5.5406 H   0  0  0  0  0  0  0  0  0  0  0  0
   -5.2033   -0.6736    4.7056 H   0  0  0  0  0  0  0  0  0  0  0  0
   -4.3769    0.5203    3.2032 H   0  0  0  0  0  0  0  0  0  0  0  0
   -3.4788    0.5227    4.7400 H   0  0  0  0  0  0  0  0  0  0  0  0
   -1.4248    1.2197    3.5385 H   0  0  0  0  0  0  0  0  0  0  0  0
   -2.3229    1.2173    2.0017 H   0  0  0  0  0  0  0  0  0  0  0  0
   -2.7444    2.3853    3.2770 H   0  0  0  0  0  0  0  0  0  0  0  0
   -5.1973   -7.5884    7.6503 H   0  0  0  0  0  0  0  0  0  0  0  0
   -4.3177   -6.9976    6.2156 H   0  0  0  0  0  0  0  0  0  0  0  0
   -2.9604   -6.8544    8.3360 H   0  0  0  0  0  0  0  0  0  0  0  0
   -3.2063   -5.2744    7.5538 H   0  0  0  0  0  0  0  0  0  0  0  0
   -5.6555   -4.0677    9.8885 H   0  0  0  0  0  0  0  0  0  0  0  0
   -4.7110   -3.7185    8.4205 H   0  0  0  0  0  0  0  0  0  0  0  0
   -7.0159   -4.1942    7.7730 H   0  0  0  0  0  0  0  0  0  0  0  0
   -6.9887   -5.7271    8.6843 H   0  0  0  0  0  0  0  0  0  0  0  0
   -2.7349   -4.2943    9.7377 H   0  0  0  0  0  0  0  0  0  0  0  0
   -2.9030   -7.0444   11.0514 H   0  0  0  0  0  0  0  0  0  0  0  0
   -1.8745   -6.6186    9.6625 H   0  0  0  0  0  0  0  0  0  0  0  0
   -0.5858   -6.5458   11.7797 H   0  0  0  0  0  0  0  0  0  0  0  0
   -0.7039   -4.9276   11.0478 H   0  0  0  0  0  0  0  0  0  0  0  0
   -2.4815   -6.0039   13.2835 H   0  0  0  0  0  0  0  0  0  0  0  0
   -1.1527   -4.8369   13.4848 H   0  0  0  0  0  0  0  0  0  0  0  0
   -3.3420   -3.6796   13.3587 H   0  0  0  0  0  0  0  0  0  0  0  0
   -2.3134   -3.2538   11.9698 H   0  0  0  0  0  0  0  0  0  0  0  0
   -4.6307   -3.7524   11.2415 H   0  0  0  0  0  0  0  0  0  0  0  0
   -4.5126   -5.3706   11.9734 H   0  0  0  0  0  0  0  0  0  0  0  0
    1.8382   -5.5450   -0.5774 H   0  0  0  0  0  0  0  0  0  0  0  0
    3.2154   -4.9863    0.4020 H   0  0  0  0  0  0  0  0  0  0  0  0
    2.0155   -6.0970    1.1055 H   0  0  0  0  0  0  0  0  0  0  0  0
   -4.8456   -6.3332    9.7446 H   0  0  0  0  0  0  0  0  0  0  0  0
  1  2  1  0  0  0  0
  1 40  1  0  0  0  0
  1 41  1  0  0  0  0
  1 42  1  0  0  0  0
  2  3  1  0  0  0  0
  2 43  1  0  0  0  0
  2 44  1  0  0  0  0
  3  4  1  0  0  0  0
  3 45  1  0  0  0  0
  3 46  1  0  0  0  0
  4 38  2  0  0  0  0
  4  5  1  0  0  0  0
  5 12  1  0  0  0  0
  5  6  2  0  0  0  0
  6  7  1  0  0  0  0
  6 37  1  0  0  0  0
  7  8  2  0  0  0  0
  7  9  1  0  0  0  0
  9 10  1  0  0  0  0
  9 11  1  0  0  0  0
 11 12  2  0  0  0  0
 11 13  1  0  0  0  0
 13 18  2  0  0  0  0
 13 14  1  0  0  0  0
 14 15  2  0  0  0  0
 14 47  1  0  0  0  0
 15 16  1  0  0  0  0
 15 22  1  0  0  0  0
 16 17  2  0  0  0  0
 16 48  1  0  0  0  0
 17 18  1  0  0  0  0
 17 49  1  0  0  0  0
 18 19  1  0  0  0  0
 19 20  1  0  0  0  0
 20 21  1  0  0  0  0
 20 50  1  0  0  0  0
 20 51  1  0  0  0  0
 21 52  1  0  0  0  0
 21 53  1  0  0  0  0
 21 54  1  0  0  0  0
 22 23  2  0  0  0  0
 22 24  2  0  0  0  0
 22 25  1  0  0  0  0
 25 30  1  0  0  0  0
 25 26  1  0  0  0  0
 26 27  1  0  0  0  0
 26 55  1  0  0  0  0
 26 56  1  0  0  0  0
 27 28  1  0  0  0  0
 27 57  1  0  0  0  0
 27 58  1  0  0  0  0
 28 29  1  0  0  0  0
 28 31  1  0  0  0  0
 28 77  1  0  0  0  0
 29 30  1  0  0  0  0
 29 59  1  0  0  0  0
 29 60  1  0  0  0  0
 30 61  1  0  0  0  0
 30 62  1  0  0  0  0
 31 36  1  0  0  0  0
 31 32  1  0  0  0  0
 31 63  1  0  0  0  0
 32 33  1  0  0  0  0
 32 64  1  0  0  0  0
 32 65  1  0  0  0  0
 33 34  1  0  0  0  0
 33 66  1  0  0  0  0
 33 67  1  0  0  0  0
 34 35  1  0  0  0  0
 34 68  1  0  0  0  0
 34 69  1  0  0  0  0
 35 36  1  0  0  0  0
 35 70  1  0  0  0  0
 35 71  1  0  0  0  0
 36 72  1  0  0  0  0
 36 73  1  0  0  0  0
 37 38  1  0  0  0  0
 37 39  1  0  0  0  0
 39 74  1  0  0  0  0
 39 75  1  0  0  0  0
 39 76  1  0  0  0  0
M  CHG  1  28   1
M  END
$$$$
CHEMBL378542
  -OEChem-07121202283D

 56 60  0     0  0  0  0  0  0999 V2000
   -0.0184    1.5028    0.0103 C   0  0  0  0  0  0  0  0  0  0  0  0
    0.0021   -0.0041    0.0020 C   0  0  0  0  0  0  0  0  0  0  0  0
   -1.2118   -0.7183    0.0040 C   0  0  0  0  0  0  0  0  0  0  0  0
   -2.5168   -0.0582    0.0134 C   0  0  0  0  0  0  0  0  0  0  0  0
   -2.9380    1.2501    0.0219 C   0  0  0  0  0  0  0  0  0  0  0  0
   -4.3390    1.2424    0.0278 C   0  0  0  0  0  0  0  0  0  0  0  0
   -4.7543   -0.0112    0.0231 N   0  0  0  0  0  0  0  0  0  0  0  0
   -3.6395   -0.8571    0.0140 N   0  0  0  0  0  0  0  0  0  0  0  0
   -3.5024   -2.2151    0.0064 C   0  0  0  0  0  0  0  0  0  0  0  0
   -2.3459   -2.8078   -0.0011 N   0  0  0  0  0  0  0  0  0  0  0  0
   -1.1897   -2.1243   -0.0038 C   0  0  0  0  0  0  0  0  0  0  0  0
    0.1123   -2.7930   -0.0132 C   0  0  0  0  0  0  0  0  0  0  0  0
    0.1898   -4.0098   -0.0206 O   0  0  0  0  0  0  0  0  0  0  0  0
    1.2260   -2.0282   -0.0140 N   0  0  0  0  0  0  0  0  0  0  0  0
    1.1425   -0.6340   -0.0123 N   0  0  0  0  0  0  0  0  0  0  0  0
    2.5422   -2.6715   -0.0233 C   0  0  0  0  0  0  0  0  0  0  0  0
    2.9872   -2.8843   -1.4473 C   0  0  0  0  0  0  0  0  0  0  0  0
    2.6608   -4.0551   -2.1058 C   0  0  0  0  0  0  0  0  0  0  0  0
    3.0689   -4.2503   -3.4120 C   0  0  0  0  0  0  0  0  0  0  0  0
    3.8032   -3.2746   -4.0599 C   0  0  0  0  0  0  0  0  0  0  0  0
    4.1288   -2.1034   -3.4017 C   0  0  0  0  0  0  0  0  0  0  0  0
    3.7170   -1.9064   -2.0969 C   0  0  0  0  0  0  0  0  0  0  0  0
   -4.7471   -3.0647    0.0073 C   0  0  0  0  0  0  0  0  0  0  0  0
   -4.3551   -4.5436   -0.0020 C   0  0  0  0  0  0  0  0  0  0  0  0
   -5.5998   -5.3932   -0.0010 C   0  0  0  0  0  0  0  0  0  0  0  0
   -6.6880   -4.8699    0.0063 O   0  0  0  0  0  0  0  0  0  0  0  0
   -5.4864   -6.8959   -0.0093 C   0  0  0  0  0  0  0  0  0  0  0  0
   -5.2112    2.4432    0.0385 C   0  0  0  0  0  0  0  0  0  0  0  0
   -4.6470    3.7171    0.0376 C   0  0  0  0  0  0  0  0  0  0  0  0
   -5.4628    4.8304    0.0476 C   0  0  0  0  0  0  0  0  0  0  0  0
   -6.8380    4.6831    0.0589 C   0  0  0  0  0  0  0  0  0  0  0  0
   -7.4035    3.4207    0.0602 C   0  0  0  0  0  0  0  0  0  0  0  0
   -6.5971    2.3006    0.0436 C   0  0  0  0  0  0  0  0  0  0  0  0
    1.0042    1.8801    0.0026 H   0  0  0  0  0  0  0  0  0  0  0  0
   -0.5455    1.8639   -0.8728 H   0  0  0  0  0  0  0  0  0  0  0  0
   -0.5286    1.8543    0.9071 H   0  0  0  0  0  0  0  0  0  0  0  0
   -2.3045    2.1247    0.0240 H   0  0  0  0  0  0  0  0  0  0  0  0
    3.2617   -2.0342    0.4908 H   0  0  0  0  0  0  0  0  0  0  0  0
    2.4801   -3.6334    0.4856 H   0  0  0  0  0  0  0  0  0  0  0  0
    2.0871   -4.8174   -1.5996 H   0  0  0  0  0  0  0  0  0  0  0  0
    2.8145   -5.1653   -3.9262 H   0  0  0  0  0  0  0  0  0  0  0  0
    4.1227   -3.4274   -5.0801 H   0  0  0  0  0  0  0  0  0  0  0  0
    4.7028   -1.3413   -3.9077 H   0  0  0  0  0  0  0  0  0  0  0  0
    3.9682   -0.9898   -1.5839 H   0  0  0  0  0  0  0  0  0  0  0  0
   -5.3330   -2.8498    0.9009 H   0  0  0  0  0  0  0  0  0  0  0  0
   -5.3406   -2.8406   -0.8790 H   0  0  0  0  0  0  0  0  0  0  0  0
   -3.7691   -4.7586   -0.8956 H   0  0  0  0  0  0  0  0  0  0  0  0
   -3.7615   -4.7678    0.8844 H   0  0  0  0  0  0  0  0  0  0  0  0
   -5.4546   -7.2635    1.0164 H   0  0  0  0  0  0  0  0  0  0  0  0
   -6.3487   -7.3226   -0.5216 H   0  0  0  0  0  0  0  0  0  0  0  0
   -4.5738   -7.1886   -0.5285 H   0  0  0  0  0  0  0  0  0  0  0  0
   -3.5733    3.8332    0.0296 H   0  0  0  0  0  0  0  0  0  0  0  0
   -5.0265    5.8184    0.0470 H   0  0  0  0  0  0  0  0  0  0  0  0
   -7.4727    5.5569    0.0670 H   0  0  0  0  0  0  0  0  0  0  0  0
   -8.4779    3.3114    0.0697 H   0  0  0  0  0  0  0  0  0  0  0  0
   -7.0396    1.3155    0.0397 H   0  0  0  0  0  0  0  0  0  0  0  0
  1  2  1  0  0  0  0
  1 34  1  0  0  0  0
  1 35  1  0  0  0  0
  1 36  1  0  0  0  0
  2 15  2  0  0  0  0
  2  3  1  0  0  0  0
  3 11  2  0  0  0  0
  3  4  1  0  0  0  0
  4  8  1  0  0  0  0
  4  5  2  0  0  0  0
  5  6  1  0  0  0  0
  5 37  1  0  0  0  0
  6  7  2  0  0  0  0
  6 28  1  0  0  0  0
  7  8  1  0  0  0  0
  8  9  1  0  0  0  0
  9 10  2  0  0  0  0
  9 23  1  0  0  0  0
 10 11  1  0  0  0  0
 11 12  1  0  0  0  0
 12 13  2  0  0  0  0
 12 14  1  0  0  0  0
 14 15  1  0  0  0  0
 14 16  1  0  0  0  0
 16 17  1  0  0  0  0
 16 38  1  0  0  0  0
 16 39  1  0  0  0  0
 17 22  2  0  0  0  0
 17 18  1  0  0  0  0
 18 19  2  0  0  0  0
 18 40  1  0  0  0  0
 19 20  1  0  0  0  0
 19 41  1  0  0  0  0
 20 21  2  0  0  0  0
 20 42  1  0  0  0  0
 21 22  1  0  0  0  0
 21 43  1  0  0  0  0
 22 44  1  0  0  0  0
 23 24  1  0  0  0  0
 23 45  1  0  0  0  0
 23 46  1  0  0  0  0
 24 25  1  0  0  0  0
 24 47  1  0  0  0  0
 24 48  1  0  0  0  0
 25 26  2  0  0  0  0
 25 27  1  0  0  0  0
 27 49  1  0  0  0  0
 27 50  1  0  0  0  0
 27 51  1  0  0  0  0
 28 33  2  0  0  0  0
 28 29  1  0  0  0  0
 29 30  2  0  0  0  0
 29 52  1  0  0  0  0
 30 31  1  0  0  0  0
 30 53  1  0  0  0  0
 31 32  2  0  0  0  0
 31 54  1  0  0  0  0
 32 33  1  0  0  0  0
 32 55  1  0  0  0  0
 33 56  1  0  0  0  0
M  END
$$$$
CHEMBL188333
  -OEChem-07121202283D

 35 37  0     0  0  0  0  0  0999 V2000
   -0.0164    1.3571    0.0095 C   0  0  0  0  0  0  0  0  0  0  0  0
    1.1699    2.0899    0.0021 C   0  0  0  0  0  0  0  0  0  0  0  0
    2.3792    1.4680   -0.0127 C   0  0  0  0  0  0  0  0  0  0  0  0
    2.4411    0.0610   -0.0208 C   0  0  0  0  0  0  0  0  0  0  0  0
    1.2317   -0.6821   -0.0132 C   0  0  0  0  0  0  0  0  0  0  0  0
    0.0021   -0.0041    0.0020 C   0  0  0  0  0  0  0  0  0  0  0  0
    1.2909   -2.0881   -0.0213 C   0  0  0  0  0  0  0  0  0  0  0  0
    2.5196   -2.6830   -0.0361 C   0  0  0  0  0  0  0  0  0  0  0  0
    3.6777   -1.8916   -0.0429 C   0  0  0  0  0  0  0  0  0  0  0  0
    3.6125   -0.5739   -0.0349 N   0  0  0  0  0  0  0  0  0  0  0  0
    5.0050   -2.5507   -0.0591 C   0  0  0  0  0  0  0  0  0  0  0  0
    5.0810   -3.7635   -0.0662 O   0  0  0  0  0  0  0  0  0  0  0  0
    6.1277   -1.8051   -0.0658 N   0  0  0  0  0  0  0  0  0  0  0  0
    7.3713   -2.4227   -0.0810 C   0  0  0  0  0  0  0  0  0  0  0  0
    8.5621   -1.8631   -0.0840 N   0  0  0  0  0  0  0  0  0  0  0  0
    9.6601   -2.5956   -0.0992 C   0  0  0  0  0  0  0  0  0  0  0  0
    9.5023   -3.9422   -0.1115 C   0  0  0  0  0  0  0  0  0  0  0  0
    7.7214   -4.0688   -0.0924 S   0  0  0  0  0  0  0  0  0  0  0  0
   11.0280   -1.9633   -0.1033 C   0  0  0  0  0  0  0  0  0  0  0  0
   11.1333   -1.0012   -1.2584 C   0  0  0  0  0  0  0  0  0  0  0  0
   10.1903   -0.8444   -2.0048 O   0  0  0  0  0  0  0  0  0  0  0  0
   12.2753   -0.3151   -1.4619 N   0  0  0  0  0  0  0  0  0  0  0  0
   12.3742    0.5890   -2.5473 O   0  0  0  0  0  0  0  0  0  0  0  0
   -0.9630    1.8767    0.0259 H   0  0  0  0  0  0  0  0  0  0  0  0
    1.1277    3.1690    0.0079 H   0  0  0  0  0  0  0  0  0  0  0  0
    3.2885    2.0507   -0.0187 H   0  0  0  0  0  0  0  0  0  0  0  0
   -0.9241   -0.5596    0.0082 H   0  0  0  0  0  0  0  0  0  0  0  0
    0.3881   -2.6808   -0.0155 H   0  0  0  0  0  0  0  0  0  0  0  0
    2.5997   -3.7600   -0.0422 H   0  0  0  0  0  0  0  0  0  0  0  0
    6.0669   -0.8370   -0.0601 H   0  0  0  0  0  0  0  0  0  0  0  0
   10.2483   -4.7231   -0.1250 H   0  0  0  0  0  0  0  0  0  0  0  0
   11.1827   -1.4260    0.8324 H   0  0  0  0  0  0  0  0  0  0  0  0
   11.7866   -2.7393   -0.2064 H   0  0  0  0  0  0  0  0  0  0  0  0
   13.0295   -0.4405   -0.8650 H   0  0  0  0  0  0  0  0  0  0  0  0
   13.2304    1.0338   -2.6119 H   0  0  0  0  0  0  0  0  0  0  0  0
  1  6  2  0  0  0  0
  1  2  1  0  0  0  0
  1 24  1  0  0  0  0
  2  3  2  0  0  0  0
  2 25  1  0  0  0  0
  3  4  1  0  0  0  0
  3 26  1  0  0  0  0
  4 10  2  0  0  0  0
  4  5  1  0  0  0  0
  5  6  1  0  0  0  0
  5  7  2  0  0  0  0
  6 27  1  0  0  0  0
  7  8  1  0  0  0  0
  7 28  1  0  0  0  0
  8  9  2  0  0  0  0
  8 29  1  0  0  0  0
  9 10  1  0  0  0  0
  9 11  1  0  0  0  0
 11 12  2  0  0  0  0
 11 13  1  0  0  0  0
 13 14  1  0  0  0  0
 13 30  1  0  0  0  0
 14 18  1  0  0  0  0
 14 15  2  0  0  0  0
 15 16  1  0  0  0  0
 16 17  2  0  0  0  0
 16 19  1  0  0  0  0
 17 18  1  0  0  0  0
 17 31  1  0  0  0  0
 19 20  1  0  0  0  0
 19 32  1  0  0  0  0
 19 33  1  0  0  0  0
 20 21  2  0  0  0  0
 20 22  1  0  0  0  0
 22 23  1  0  0  0  0
 22 34  1  0  0  0  0
 23 35  1  0  0  0  0
M  END
$$$$
CHEMBL303154
  -OEChem-07121202283D

 57 62  0     0  0  0  0  0  0999 V2000
   -0.0178    1.4608    0.0101 C   0  0  0  0  0  0  0  0  0  0  0  0
    0.0021   -0.0041    0.0020 N   0  0  0  0  0  0  0  0  0  0  0  0
    0.0054   -0.6571   -1.1745 C   0  0  0  0  0  0  0  0  0  0  0  0
   -0.0073   -0.0389   -2.2232 O   0  0  0  0  0  0  0  0  0  0  0  0
    0.0250   -2.1200   -1.1764 C   0  0  0  0  0  0  0  0  0  0  0  0
    0.0355   -2.7837    0.0418 C   0  0  0  0  0  0  0  0  0  0  0  0
    0.0523   -4.1134   -0.2451 N   0  0  0  0  0  0  0  0  0  0  0  0
    0.0530   -4.2414   -1.6039 C   0  0  0  0  0  0  0  0  0  0  0  0
    0.0368   -3.0612   -2.1521 N   0  0  0  0  0  0  0  0  0  0  0  0
    0.0624   -4.8386    0.3990 H   0  0  0  0  0  0  0  0  0  0  0  0
    0.0710   -5.5484   -2.3540 C   0  0  0  0  0  0  0  0  0  0  0  0
   -1.0931   -5.5950   -3.3099 C   0  0  0  0  0  0  0  0  0  0  0  0
   -2.3072   -6.1099   -2.8925 C   0  0  0  0  0  0  0  0  0  0  0  0
   -3.3766   -6.1550   -3.7638 C   0  0  0  0  0  0  0  0  0  0  0  0
   -3.2316   -5.6807   -5.0659 C   0  0  0  0  0  0  0  0  0  0  0  0
   -2.0064   -5.1631   -5.4809 C   0  0  0  0  0  0  0  0  0  0  0  0
   -0.9452   -5.1176   -4.5996 C   0  0  0  0  0  0  0  0  0  0  0  0
   -4.3778   -5.7270   -6.0073 C   0  0  0  0  0  0  0  0  0  0  0  0
   -5.6046   -6.2397   -5.5906 C   0  0  0  0  0  0  0  0  0  0  0  0
   -6.6674   -6.2800   -6.4702 C   0  0  0  0  0  0  0  0  0  0  0  0
   -6.5162   -5.8131   -7.7634 C   0  0  0  0  0  0  0  0  0  0  0  0
   -5.3005   -5.3035   -8.1825 C   0  0  0  0  0  0  0  0  0  0  0  0
   -4.2328   -5.2527   -7.3094 C   0  0  0  0  0  0  0  0  0  0  0  0
    0.0292   -2.0621    1.2157 N   0  0  0  0  0  0  0  0  0  0  0  0
    0.0228   -0.6898    1.2065 C   0  0  0  0  0  0  0  0  0  0  0  0
    0.0340   -0.1692    2.4081 N   0  3  0  0  0  0  0  0  0  0  0  0
    0.0541   -1.2224    3.4111 C   0  0  0  0  0  0  0  0  0  0  0  0
    0.0349   -2.5297    2.6164 C   0  0  0  0  0  0  0  0  0  0  0  0
   -1.1596   -1.1382    4.3524 C   0  0  0  0  0  0  0  0  0  0  0  0
   -0.6873   -0.1245    5.4267 C   0  0  0  0  0  0  0  0  0  0  0  0
    0.8117   -0.4394    5.6166 C   0  0  0  0  0  0  0  0  0  0  0  0
    1.2830   -1.1297    4.3217 C   0  0  0  0  0  0  0  0  0  0  0  0
    1.0048    1.8381    0.0023 H   0  0  0  0  0  0  0  0  0  0  0  0
   -0.5450    1.8219   -0.8730 H   0  0  0  0  0  0  0  0  0  0  0  0
   -0.5280    1.8123    0.9069 H   0  0  0  0  0  0  0  0  0  0  0  0
    1.0032   -5.6341   -2.9123 H   0  0  0  0  0  0  0  0  0  0  0  0
   -0.0062   -6.3743   -1.6468 H   0  0  0  0  0  0  0  0  0  0  0  0
   -2.4184   -6.4776   -1.8831 H   0  0  0  0  0  0  0  0  0  0  0  0
   -4.3241   -6.5575   -3.4370 H   0  0  0  0  0  0  0  0  0  0  0  0
   -1.8884   -4.7944   -6.4892 H   0  0  0  0  0  0  0  0  0  0  0  0
    0.0036   -4.7122   -4.9188 H   0  0  0  0  0  0  0  0  0  0  0  0
   -5.7235   -6.6053   -4.5813 H   0  0  0  0  0  0  0  0  0  0  0  0
   -7.6187   -6.6772   -6.1483 H   0  0  0  0  0  0  0  0  0  0  0  0
   -7.3504   -5.8468   -8.4485 H   0  0  0  0  0  0  0  0  0  0  0  0
   -5.1878   -4.9405   -9.1934 H   0  0  0  0  0  0  0  0  0  0  0  0
   -3.2852   -4.8505   -7.6363 H   0  0  0  0  0  0  0  0  0  0  0  0
   -0.8621   -3.1098    2.8333 H   0  0  0  0  0  0  0  0  0  0  0  0
    0.9323   -3.1120    2.8254 H   0  0  0  0  0  0  0  0  0  0  0  0
   -2.0342   -0.7606    3.8226 H   0  0  0  0  0  0  0  0  0  0  0  0
   -1.3681   -2.1090    4.8020 H   0  0  0  0  0  0  0  0  0  0  0  0
   -0.8199    0.8972    5.0709 H   0  0  0  0  0  0  0  0  0  0  0  0
   -1.2299   -0.2775    6.3596 H   0  0  0  0  0  0  0  0  0  0  0  0
    1.3704    0.4834    5.7726 H   0  0  0  0  0  0  0  0  0  0  0  0
    0.9482   -1.1074    6.4670 H   0  0  0  0  0  0  0  0  0  0  0  0
    1.6593   -2.1280    4.5453 H   0  0  0  0  0  0  0  0  0  0  0  0
    2.0604   -0.5350    3.8420 H   0  0  0  0  0  0  0  0  0  0  0  0
    0.0299    0.7814    2.6013 H   0  0  0  0  0  0  0  0  0  0  0  0
  1  2  1  0  0  0  0
  1 33  1  0  0  0  0
  1 34  1  0  0  0  0
  1 35  1  0  0  0  0
  2 25  1  0  0  0  0
  2  3  1  0  0  0  0
  3  4  2  0  0  0  0
  3  5  1  0  0  0  0
  5  9  1  0  0  0  0
  5  6  2  0  0  0  0
  6 24  1  0  0  0  0
  6  7  1  0  0  0  0
  7  8  1  0  0  0  0
  7 10  1  0  0  0  0
  8 11  1  0  0  0  0
  8  9  2  0  0  0  0
 11 12  1  0  0  0  0
 11 36  1  0  0  0  0
 11 37  1  0  0  0  0
 12 17  2  0  0  0  0
 12 13  1  0  0  0  0
 13 14  2  0  0  0  0
 13 38  1  0  0  0  0
 14 15  1  0  0  0  0
 14 39  1  0  0  0  0
 15 16  2  0  0  0  0
 15 18  1  0  0  0  0
 16 17  1  0  0  0  0
 16 40  1  0  0  0  0
 17 41  1  0  0  0  0
 18 23  2  0  0  0  0
 18 19  1  0  0  0  0
 19 20  2  0  0  0  0
 19 42  1  0  0  0  0
 20 21  1  0  0  0  0
 20 43  1  0  0  0  0
 21 22  2  0  0  0  0
 21 44  1  0  0  0  0
 22 23  1  0  0  0  0
 22 45  1  0  0  0  0
 23 46  1  0  0  0  0
 24 28  1  0  0  0  0
 24 25  1  0  0  0  0
 25 26  2  0  0  0  0
 26 27  1  0  0  0  0
 26 57  1  0  0  0  0
 27 32  1  0  0  0  0
 27 28  1  0  0  0  0
 27 29  1  0  0  0  0
 28 47  1  0  0  0  0
 28 48  1  0  0  0  0
 29 30  1  0  0  0  0
 29 49  1  0  0  0  0
 29 50  1  0  0  0  0
 30 31  1  0  0  0  0
 30 51  1  0  0  0  0
 30 52  1  0  0  0  0
 31 32  1  0  0  0  0
 31 53  1  0  0  0  0
 31 54  1  0  0  0  0
 32 55  1  0  0  0  0
 32 56  1  0  0  0  0
M  CHG  1  26   1
M  END
$$$$
CHEMBL303154
  -OEChem-07121202283D

 57 62  0     0  0  0  0  0  0999 V2000
   -0.0178    1.4608    0.0101 C   0  0  0  0  0  0  0  0  0  0  0  0
    0.0021   -0.0041    0.0020 N   0  0  0  0  0  0  0  0  0  0  0  0
    0.0054   -0.6578   -1.1733 C   0  0  0  0  0  0  0  0  0  0  0  0
   -0.0079   -0.0331   -2.2188 O   0  0  0  0  0  0  0  0  0  0  0  0
    0.0246   -2.0683   -1.1934 C   0  0  0  0  0  0  0  0  0  0  0  0
    0.0348   -2.7660    0.0057 C   0  0  0  0  0  0  0  0  0  0  0  0
    0.0516   -4.0685   -0.2939 N   0  0  0  0  0  0  0  0  0  0  0  0
    0.0537   -4.2246   -1.5930 C   0  0  0  0  0  0  0  0  0  0  0  0
    0.0375   -3.0199   -2.1953 N   0  0  0  0  0  0  0  0  0  0  0  0
    0.0350   -2.8521   -3.1507 H   0  0  0  0  0  0  0  0  0  0  0  0
    0.0723   -5.5514   -2.3073 C   0  0  0  0  0  0  0  0  0  0  0  0
    1.2474   -6.3638   -1.8275 C   0  0  0  0  0  0  0  0  0  0  0  0
    2.4679   -6.2558   -2.4695 C   0  0  0  0  0  0  0  0  0  0  0  0
    3.5474   -6.9975   -2.0343 C   0  0  0  0  0  0  0  0  0  0  0  0
    3.4062   -7.8562   -0.9461 C   0  0  0  0  0  0  0  0  0  0  0  0
    2.1745   -7.9610   -0.3031 C   0  0  0  0  0  0  0  0  0  0  0  0
    1.1031   -7.2104   -0.7432 C   0  0  0  0  0  0  0  0  0  0  0  0
    4.5631   -8.6565   -0.4739 C   0  0  0  0  0  0  0  0  0  0  0  0
    5.7962   -8.5477   -1.1135 C   0  0  0  0  0  0  0  0  0  0  0  0
    6.8691   -9.2940   -0.6699 C   0  0  0  0  0  0  0  0  0  0  0  0
    6.7218  -10.1492    0.4073 C   0  0  0  0  0  0  0  0  0  0  0  0
    5.4998  -10.2614    1.0457 C   0  0  0  0  0  0  0  0  0  0  0  0
    4.4219   -9.5152    0.6143 C   0  0  0  0  0  0  0  0  0  0  0  0
    0.0284   -2.0635    1.2008 N   0  0  0  0  0  0  0  0  0  0  0  0
    0.0228   -0.6908    1.2057 C   0  0  0  0  0  0  0  0  0  0  0  0
    0.0352   -0.1826    2.4115 N   0  3  0  0  0  0  0  0  0  0  0  0
    0.0552   -1.2468    3.4034 C   0  0  0  0  0  0  0  0  0  0  0  0
    0.0340   -2.5461    2.5950 C   0  0  0  0  0  0  0  0  0  0  0  0
   -1.1578   -1.1723    4.3463 C   0  0  0  0  0  0  0  0  0  0  0  0
   -0.6844   -0.1703    5.4312 C   0  0  0  0  0  0  0  0  0  0  0  0
    0.8146   -0.4877    5.6165 C   0  0  0  0  0  0  0  0  0  0  0  0
    1.2849   -1.1641    4.3140 C   0  0  0  0  0  0  0  0  0  0  0  0
    1.0048    1.8381    0.0023 H   0  0  0  0  0  0  0  0  0  0  0  0
   -0.5450    1.8219   -0.8730 H   0  0  0  0  0  0  0  0  0  0  0  0
   -0.5280    1.8123    0.9069 H   0  0  0  0  0  0  0  0  0  0  0  0
   -0.8517   -6.0901   -2.0974 H   0  0  0  0  0  0  0  0  0  0  0  0
    0.1599   -5.3849   -3.3810 H   0  0  0  0  0  0  0  0  0  0  0  0
    2.5762   -5.5902   -3.3131 H   0  0  0  0  0  0  0  0  0  0  0  0
    4.4998   -6.9127   -2.5364 H   0  0  0  0  0  0  0  0  0  0  0  0
    2.0594   -8.6253    0.5406 H   0  0  0  0  0  0  0  0  0  0  0  0
    0.1492   -7.2874   -0.2427 H   0  0  0  0  0  0  0  0  0  0  0  0
    5.9122   -7.8808   -1.9551 H   0  0  0  0  0  0  0  0  0  0  0  0
    7.8253   -9.2105   -1.1649 H   0  0  0  0  0  0  0  0  0  0  0  0
    7.5638  -10.7316    0.7509 H   0  0  0  0  0  0  0  0  0  0  0  0
    5.3902  -10.9309    1.8860 H   0  0  0  0  0  0  0  0  0  0  0  0
    3.4694   -9.6003    1.1162 H   0  0  0  0  0  0  0  0  0  0  0  0
   -0.8628   -3.1286    2.8055 H   0  0  0  0  0  0  0  0  0  0  0  0
    0.9316   -3.1303    2.7977 H   0  0  0  0  0  0  0  0  0  0  0  0
   -2.0325   -0.7888    3.8212 H   0  0  0  0  0  0  0  0  0  0  0  0
   -1.3662   -2.1478    4.7857 H   0  0  0  0  0  0  0  0  0  0  0  0
   -0.8170    0.8552    5.0865 H   0  0  0  0  0  0  0  0  0  0  0  0
   -1.2264   -0.3332    6.3628 H   0  0  0  0  0  0  0  0  0  0  0  0
    1.3737    0.4332    5.7821 H   0  0  0  0  0  0  0  0  0  0  0  0
    0.9516   -1.1650    6.4596 H   0  0  0  0  0  0  0  0  0  0  0  0
    1.6613   -2.1647    4.5266 H   0  0  0  0  0  0  0  0  0  0  0  0
    2.0619   -0.5642    3.8401 H   0  0  0  0  0  0  0  0  0  0  0  0
    0.0318    0.7659    2.6145 H   0  0  0  0  0  0  0  0  0  0  0  0
  1  2  1  0  0  0  0
  1 33  1  0  0  0  0
  1 34  1  0  0  0  0
  1 35  1  0  0  0  0
  2 25  1  0  0  0  0
  2  3  1  0  0  0  0
  3  4  2  0  0  0  0
  3  5  1  0  0  0  0
  5  9  1  0  0  0  0
  5  6  2  0  0  0  0
  6  7  1  0  0  0  0
  6 24  1  0  0  0  0
  7  8  2  0  0  0  0
  8  9  1  0  0  0  0
  8 11  1  0  0  0  0
  9 10  1  0  0  0  0
 11 12  1  0  0  0  0
 11 36  1  0  0  0  0
 11 37  1  0  0  0  0
 12 17  2  0  0  0  0
 12 13  1  0  0  0  0
 13 14  2  0  0  0  0
 13 38  1  0  0  0  0
 14 15  1  0  0  0  0
 14 39  1  0  0  0  0
 15 16  2  0  0  0  0
 15 18  1  0  0  0  0
 16 17  1  0  0  0  0
 16 40  1  0  0  0  0
 17 41  1  0  0  0  0
 18 23  2  0  0  0  0
 18 19  1  0  0  0  0
 19 20  2  0  0  0  0
 19 42  1  0  0  0  0
 20 21  1  0  0  0  0
 20 43  1  0  0  0  0
 21 22  2  0  0  0  0
 21 44  1  0  0  0  0
 22 23  1  0  0  0  0
 22 45  1  0  0  0  0
 23 46  1  0  0  0  0
 24 28  1  0  0  0  0
 24 25  1  0  0  0  0
 25 26  2  0  0  0  0
 26 27  1  0  0  0  0
 26 57  1  0  0  0  0
 27 32  1  0  0  0  0
 27 28  1  0  0  0  0
 27 29  1  0  0  0  0
 28 47  1  0  0  0  0
 28 48  1  0  0  0  0
 29 30  1  0  0  0  0
 29 49  1  0  0  0  0
 29 50  1  0  0  0  0
 30 31  1  0  0  0  0
 30 51  1  0  0  0  0
 30 52  1  0  0  0  0
 31 32  1  0  0  0  0
 31 53  1  0  0  0  0
 31 54  1  0  0  0  0
 32 55  1  0  0  0  0
 32 56  1  0  0  0  0
M  CHG  1  26   1
M  END
$$$$
CHEMBL427043
  -OEChem-07121202283D

 68 71  0     0  0  0  0  0  0999 V2000
   -0.0187    1.5258    0.0104 C   0  0  0  0  0  0  0  0  0  0  0  0
    0.0021   -0.0041    0.0020 C   0  0  0  0  0  0  0  0  0  0  0  0
    0.7182   -0.4975   -1.2568 C   0  0  0  0  0  0  0  0  0  0  0  0
    0.7390   -2.0273   -1.2652 C   0  0  0  0  0  0  0  0  0  0  0  0
    1.4078   -2.4882   -2.4409 O   0  0  0  0  0  0  0  0  0  0  0  0
    1.5132   -3.8277   -2.6027 C   0  0  0  0  0  0  0  0  0  0  0  0
    2.1650   -4.3399   -3.7355 C   0  0  0  0  0  0  0  0  0  0  0  0
    2.2667   -5.7190   -3.8902 C   0  0  0  0  0  0  0  0  0  0  0  0
    1.7088   -6.5407   -2.8991 C   0  0  0  0  0  0  0  0  0  0  0  0
    1.0760   -5.9476   -1.8009 C   0  0  0  0  0  0  0  0  0  0  0  0
    1.0051   -4.6384   -1.6881 N   0  0  0  0  0  0  0  0  0  0  0  0
    1.7875   -8.0033   -3.0130 C   0  0  0  0  0  0  0  0  0  0  0  0
    2.3376   -8.5084   -3.9686 O   0  0  0  0  0  0  0  0  0  0  0  0
    1.1847   -8.8759   -1.9424 C   0  0  0  0  0  0  0  0  0  0  0  0
    2.7359   -3.4254   -4.7518 C   0  0  0  0  0  0  0  0  0  0  0  0
    3.3315   -3.9594   -5.7966 N   0  0  0  0  0  0  0  0  0  0  0  0
    3.8672   -3.1835   -6.7504 C   0  0  0  0  0  0  0  0  0  0  0  0
    4.5421   -3.3559   -7.9392 C   0  0  0  0  0  0  0  0  0  0  0  0
    4.8073   -2.1278   -8.4208 N   0  0  0  0  0  0  0  0  0  0  0  0
    4.3628   -1.2017   -7.6468 N   0  0  0  0  0  0  0  0  0  0  0  0
    3.7701   -1.7187   -6.5954 C   0  0  0  0  0  0  0  0  0  0  0  0
    3.0903   -1.2211   -5.4016 C   0  0  0  0  0  0  0  0  0  0  0  0
    2.6091   -2.1127   -4.5529 N   0  0  0  0  0  0  0  0  0  0  0  0
    2.9541    0.1056   -5.1753 O   0  5  0  0  0  0  0  0  0  0  0  0
    5.5181   -1.8756   -9.6767 C   0  0  0  0  0  0  0  0  0  0  0  0
    6.7838   -1.0611   -9.3941 C   0  0  0  0  0  0  0  0  0  0  0  0
    7.4789   -0.7335  -10.7174 C   0  0  0  0  0  0  0  0  0  0  0  0
    6.5736    0.0463  -11.5699 N   0  3  0  0  0  0  0  0  0  0  0  0
    5.3902   -0.7552  -11.9039 C   0  0  0  0  0  0  0  0  0  0  0  0
    4.6147   -1.0837  -10.6263 C   0  0  0  0  0  0  0  0  0  0  0  0
    7.2717    0.4247  -12.8058 C   0  0  0  0  0  0  0  0  0  0  0  0
    6.3733    1.3410  -13.6389 C   0  0  0  0  0  0  0  0  0  0  0  0
    4.9133   -4.6694   -8.5779 C   0  0  0  0  0  0  0  0  0  0  0  0
    6.2936   -5.1054   -8.0823 C   0  0  0  0  0  0  0  0  0  0  0  0
    1.0039    1.9031    0.0027 H   0  0  0  0  0  0  0  0  0  0  0  0
   -0.5459    1.8868   -0.8726 H   0  0  0  0  0  0  0  0  0  0  0  0
   -0.5289    1.8773    0.9072 H   0  0  0  0  0  0  0  0  0  0  0  0
    0.5293   -0.3651    0.8851 H   0  0  0  0  0  0  0  0  0  0  0  0
   -1.0205   -0.3814    0.0098 H   0  0  0  0  0  0  0  0  0  0  0  0
    0.1910   -0.1364   -2.1398 H   0  0  0  0  0  0  0  0  0  0  0  0
    1.7408   -0.1202   -1.2645 H   0  0  0  0  0  0  0  0  0  0  0  0
    1.2661   -2.3884   -0.3821 H   0  0  0  0  0  0  0  0  0  0  0  0
   -0.2836   -2.4046   -1.2575 H   0  0  0  0  0  0  0  0  0  0  0  0
    2.7616   -6.1455   -4.7503 H   0  0  0  0  0  0  0  0  0  0  0  0
    0.6435   -6.5726   -1.0336 H   0  0  0  0  0  0  0  0  0  0  0  0
    0.1468   -9.0947   -2.1937 H   0  0  0  0  0  0  0  0  0  0  0  0
    1.7461   -9.8077   -1.8743 H   0  0  0  0  0  0  0  0  0  0  0  0
    1.2250   -8.3566   -0.9849 H   0  0  0  0  0  0  0  0  0  0  0  0
    5.7897   -2.8248  -10.1388 H   0  0  0  0  0  0  0  0  0  0  0  0
    6.5149   -0.1354   -8.8853 H   0  0  0  0  0  0  0  0  0  0  0  0
    7.4570   -1.6416   -8.7633 H   0  0  0  0  0  0  0  0  0  0  0  0
    8.3806   -0.1537  -10.5198 H   0  0  0  0  0  0  0  0  0  0  0  0
    7.7476   -1.6597  -11.2252 H   0  0  0  0  0  0  0  0  0  0  0  0
    4.7498   -0.1916  -12.5823 H   0  0  0  0  0  0  0  0  0  0  0  0
    5.7034   -1.6810  -12.3865 H   0  0  0  0  0  0  0  0  0  0  0  0
    3.7374   -1.6804  -10.8763 H   0  0  0  0  0  0  0  0  0  0  0  0
    4.3007   -0.1585  -10.1431 H   0  0  0  0  0  0  0  0  0  0  0  0
    8.1939    0.9493  -12.5561 H   0  0  0  0  0  0  0  0  0  0  0  0
    7.5074   -0.4719  -13.3789 H   0  0  0  0  0  0  0  0  0  0  0  0
    5.4510    0.8165  -13.8886 H   0  0  0  0  0  0  0  0  0  0  0  0
    6.1375    2.2377  -13.0657 H   0  0  0  0  0  0  0  0  0  0  0  0
    6.8913    1.6218  -14.5559 H   0  0  0  0  0  0  0  0  0  0  0  0
    4.1754   -5.4253   -8.3093 H   0  0  0  0  0  0  0  0  0  0  0  0
    4.9364   -4.5529   -9.6614 H   0  0  0  0  0  0  0  0  0  0  0  0
    6.5621   -6.0555   -8.5442 H   0  0  0  0  0  0  0  0  0  0  0  0
    7.0316   -4.3495   -8.3508 H   0  0  0  0  0  0  0  0  0  0  0  0
    6.2706   -5.2219   -6.9988 H   0  0  0  0  0  0  0  0  0  0  0  0
    6.2863    0.8801  -11.0795 H   0  0  0  0  0  0  0  0  0  0  0  0
  1  2  1  0  0  0  0
  1 35  1  0  0  0  0
  1 36  1  0  0  0  0
  1 37  1  0  0  0  0
  2  3  1  0  0  0  0
  2 38  1  0  0  0  0
  2 39  1  0  0  0  0
  3  4  1  0  0  0  0
  3 40  1  0  0  0  0
  3 41  1  0  0  0  0
  4  5  1  0  0  0  0
  4 42  1  0  0  0  0
  4 43  1  0  0  0  0
  5  6  1  0  0  0  0
  6 11  2  0  0  0  0
  6  7  1  0  0  0  0
  7  8  2  0  0  0  0
  7 15  1  0  0  0  0
  8  9  1  0  0  0  0
  8 44  1  0  0  0  0
  9 10  2  0  0  0  0
  9 12  1  0  0  0  0
 10 11  1  0  0  0  0
 10 45  1  0  0  0  0
 12 13  2  0  0  0  0
 12 14  1  0  0  0  0
 14 46  1  0  0  0  0
 14 47  1  0  0  0  0
 14 48  1  0  0  0  0
 15 23  1  0  0  0  0
 15 16  2  0  0  0  0
 16 17  1  0  0  0  0
 17 21  1  0  0  0  0
 17 18  2  0  0  0  0
 18 19  1  0  0  0  0
 18 33  1  0  0  0  0
 19 20  1  0  0  0  0
 19 25  1  0  0  0  0
 20 21  2  0  0  0  0
 21 22  1  0  0  0  0
 22 23  2  0  0  0  0
 22 24  1  0  0  0  0
 25 30  1  0  0  0  0
 25 26  1  0  0  0  0
 25 49  1  0  0  0  0
 26 27  1  0  0  0  0
 26 50  1  0  0  0  0
 26 51  1  0  0  0  0
 27 28  1  0  0  0  0
 27 52  1  0  0  0  0
 27 53  1  0  0  0  0
 28 29  1  0  0  0  0
 28 31  1  0  0  0  0
 28 68  1  0  0  0  0
 29 30  1  0  0  0  0
 29 54  1  0  0  0  0
 29 55  1  0  0  0  0
 30 56  1  0  0  0  0
 30 57  1  0  0  0  0
 31 32  1  0  0  0  0
 31 58  1  0  0  0  0
 31 59  1  0  0  0  0
 32 60  1  0  0  0  0
 32 61  1  0  0  0  0
 32 62  1  0  0  0  0
 33 34  1  0  0  0  0
 33 63  1  0  0  0  0
 33 64  1  0  0  0  0
 34 65  1  0  0  0  0
 34 66  1  0  0  0  0
 34 67  1  0  0  0  0
M  CHG  2  24  -1  28   1
M  END
$$$$
CHEMBL427043
  -OEChem-07121202283D

 69 72  0     0  0  0  0  0  0999 V2000
   -0.0187    1.5258    0.0104 C   0  0  0  0  0  0  0  0  0  0  0  0
    0.0021   -0.0041    0.0020 C   0  0  0  0  0  0  0  0  0  0  0  0
   -1.4333   -0.5336    0.0129 C   0  0  0  0  0  0  0  0  0  0  0  0
   -1.4126   -2.0635    0.0045 C   0  0  0  0  0  0  0  0  0  0  0  0
   -2.7532   -2.5581    0.0146 O   0  0  0  0  0  0  0  0  0  0  0  0
   -2.9123   -3.9018    0.0089 C   0  0  0  0  0  0  0  0  0  0  0  0
   -4.2074   -4.4475    0.0126 C   0  0  0  0  0  0  0  0  0  0  0  0
   -4.3565   -5.8331    0.0066 C   0  0  0  0  0  0  0  0  0  0  0  0
   -3.1985   -6.6243   -0.0028 C   0  0  0  0  0  0  0  0  0  0  0  0
   -1.9464   -5.9983   -0.0059 C   0  0  0  0  0  0  0  0  0  0  0  0
   -1.8465   -4.6862   -0.0055 N   0  0  0  0  0  0  0  0  0  0  0  0
   -3.2981   -8.0901   -0.0089 C   0  0  0  0  0  0  0  0  0  0  0  0
   -4.3872   -8.6239   -0.0058 O   0  0  0  0  0  0  0  0  0  0  0  0
   -2.0471   -8.9303   -0.0190 C   0  0  0  0  0  0  0  0  0  0  0  0
   -5.3923   -3.5661    0.0230 C   0  0  0  0  0  0  0  0  0  0  0  0
   -5.1987   -2.2737    0.0235 N   0  0  0  0  0  0  0  0  0  0  0  0
   -6.2398   -1.4061    0.0328 C   0  0  0  0  0  0  0  0  0  0  0  0
   -6.4075   -0.0435    0.0361 C   0  0  0  0  0  0  0  0  0  0  0  0
   -7.7373    0.1884    0.0468 N   0  0  0  0  0  0  0  0  0  0  0  0
   -8.4120   -0.9066    0.0504 N   0  0  0  0  0  0  0  0  0  0  0  0
   -7.6115   -1.9439    0.0426 C   0  0  0  0  0  0  0  0  0  0  0  0
   -7.7622   -3.4057    0.0423 C   0  0  0  0  0  0  0  0  0  0  0  0
   -6.6325   -4.1504    0.0262 N   0  0  0  0  0  0  0  0  0  0  0  0
   -8.8618   -3.9270    0.0501 O   0  0  0  0  0  0  0  0  0  0  0  0
   -8.3387    1.5243    0.0542 C   0  0  0  0  0  0  0  0  0  0  0  0
   -9.2052    1.6888    1.3060 C   0  0  0  0  0  0  0  0  0  0  0  0
   -9.8929    3.0553    1.2677 C   0  0  0  0  0  0  0  0  0  0  0  0
  -10.7371    3.1488    0.0706 N   0  3  0  0  0  0  0  0  0  0  0  0
   -9.9036    3.0638   -1.1346 C   0  0  0  0  0  0  0  0  0  0  0  0
   -9.2164    1.6976   -1.1887 C   0  0  0  0  0  0  0  0  0  0  0  0
  -11.4548    4.4305    0.0783 C   0  0  0  0  0  0  0  0  0  0  0  0
  -12.4278    4.4773   -1.1015 C   0  0  0  0  0  0  0  0  0  0  0  0
   -5.3156    0.9951    0.0300 C   0  0  0  0  0  0  0  0  0  0  0  0
   -4.9354    1.3439    1.4703 C   0  0  0  0  0  0  0  0  0  0  0  0
    1.0039    1.9031    0.0027 H   0  0  0  0  0  0  0  0  0  0  0  0
   -0.5459    1.8868   -0.8726 H   0  0  0  0  0  0  0  0  0  0  0  0
   -0.5289    1.8773    0.9072 H   0  0  0  0  0  0  0  0  0  0  0  0
    0.5123   -0.3556   -0.8948 H   0  0  0  0  0  0  0  0  0  0  0  0
    0.5293   -0.3651    0.8851 H   0  0  0  0  0  0  0  0  0  0  0  0
   -1.9435   -0.1821    0.9097 H   0  0  0  0  0  0  0  0  0  0  0  0
   -1.9605   -0.1726   -0.8702 H   0  0  0  0  0  0  0  0  0  0  0  0
   -0.9024   -2.4150   -0.8923 H   0  0  0  0  0  0  0  0  0  0  0  0
   -0.8854   -2.4246    0.8875 H   0  0  0  0  0  0  0  0  0  0  0  0
   -5.3372   -6.2855    0.0096 H   0  0  0  0  0  0  0  0  0  0  0  0
   -1.0500   -6.6006   -0.0131 H   0  0  0  0  0  0  0  0  0  0  0  0
   -1.4545   -8.7104    0.8690 H   0  0  0  0  0  0  0  0  0  0  0  0
   -2.3185   -9.9860   -0.0224 H   0  0  0  0  0  0  0  0  0  0  0  0
   -1.4635   -8.7024   -0.9109 H   0  0  0  0  0  0  0  0  0  0  0  0
   -7.5516    2.2783    0.0526 H   0  0  0  0  0  0  0  0  0  0  0  0
   -9.9595    0.9024    1.3325 H   0  0  0  0  0  0  0  0  0  0  0  0
   -8.5775    1.6220    2.1946 H   0  0  0  0  0  0  0  0  0  0  0  0
  -10.5105    3.1758    2.1577 H   0  0  0  0  0  0  0  0  0  0  0  0
   -9.1377    3.8409    1.2415 H   0  0  0  0  0  0  0  0  0  0  0  0
  -10.5292    3.1905   -2.0181 H   0  0  0  0  0  0  0  0  0  0  0  0
   -9.1482    3.8492   -1.1096 H   0  0  0  0  0  0  0  0  0  0  0  0
   -8.5966    1.6371   -2.0833 H   0  0  0  0  0  0  0  0  0  0  0  0
   -9.9709    0.9114   -1.2140 H   0  0  0  0  0  0  0  0  0  0  0  0
  -12.0098    4.5306    1.0112 H   0  0  0  0  0  0  0  0  0  0  0  0
  -10.7392    5.2482   -0.0082 H   0  0  0  0  0  0  0  0  0  0  0  0
  -12.9604    5.4283   -1.0957 H   0  0  0  0  0  0  0  0  0  0  0  0
  -11.8729    4.3773   -2.0343 H   0  0  0  0  0  0  0  0  0  0  0  0
  -13.1434    3.6597   -1.0149 H   0  0  0  0  0  0  0  0  0  0  0  0
   -4.4428    0.6017   -0.4911 H   0  0  0  0  0  0  0  0  0  0  0  0
   -5.6695    1.8914   -0.4796 H   0  0  0  0  0  0  0  0  0  0  0  0
   -5.8082    1.7374    1.9914 H   0  0  0  0  0  0  0  0  0  0  0  0
   -4.5815    0.4477    1.9799 H   0  0  0  0  0  0  0  0  0  0  0  0
   -4.1456    2.0951    1.4659 H   0  0  0  0  0  0  0  0  0  0  0  0
  -11.4044    2.3920    0.0709 H   0  0  0  0  0  0  0  0  0  0  0  0
   -6.7016   -5.1179    0.0212 H   0  0  0  0  0  0  0  0  0  0  0  0
  1  2  1  0  0  0  0
  1 35  1  0  0  0  0
  1 36  1  0  0  0  0
  1 37  1  0  0  0  0
  2  3  1  0  0  0  0
  2 38  1  0  0  0  0
  2 39  1  0  0  0  0
  3  4  1  0  0  0  0
  3 40  1  0  0  0  0
  3 41  1  0  0  0  0
  4  5  1  0  0  0  0
  4 42  1  0  0  0  0
  4 43  1  0  0  0  0
  5  6  1  0  0  0  0
  6 11  2  0  0  0  0
  6  7  1  0  0  0  0
  7  8  2  0  0  0  0
  7 15  1  0  0  0  0
  8  9  1  0  0  0  0
  8 44  1  0  0  0  0
  9 10  2  0  0  0  0
  9 12  1  0  0  0  0
 10 11  1  0  0  0  0
 10 45  1  0  0  0  0
 12 13  2  0  0  0  0
 12 14  1  0  0  0  0
 14 46  1  0  0  0  0
 14 47  1  0  0  0  0
 14 48  1  0  0  0  0
 15 23  1  0  0  0  0
 15 16  2  0  0  0  0
 16 17  1  0  0  0  0
 17 21  1  0  0  0  0
 17 18  2  0  0  0  0
 18 19  1  0  0  0  0
 18 33  1  0  0  0  0
 19 20  1  0  0  0  0
 19 25  1  0  0  0  0
 20 21  2  0  0  0  0
 21 22  1  0  0  0  0
 22 23  1  0  0  0  0
 22 24  2  0  0  0  0
 23 69  1  0  0  0  0
 25 30  1  0  0  0  0
 25 26  1  0  0  0  0
 25 49  1  0  0  0  0
 26 27  1  0  0  0  0
 26 50  1  0  0  0  0
 26 51  1  0  0  0  0
 27 28  1  0  0  0  0
 27 52  1  0  0  0  0
 27 53  1  0  0  0  0
 28 29  1  0  0  0  0
 28 31  1  0  0  0  0
 28 68  1  0  0  0  0
 29 30  1  0  0  0  0
 29 54  1  0  0  0  0
 29 55  1  0  0  0  0
 30 56  1  0  0  0  0
 30 57  1  0  0  0  0
 31 32  1  0  0  0  0
 31 58  1  0  0  0  0
 31 59  1  0  0  0  0
 32 60  1  0  0  0  0
 32 61  1  0  0  0  0
 32 62  1  0  0  0  0
 33 34  1  0  0  0  0
 33 63  1  0  0  0  0
 33 64  1  0  0  0  0
 34 65  1  0  0  0  0
 34 66  1  0  0  0  0
 34 67  1  0  0  0  0
M  CHG  1  28   1
M  END
$$$$
CHEMBL427043
  -OEChem-07121202283D

 69 72  0     0  0  0  0  0  0999 V2000
   -0.0187    1.5258    0.0104 C   0  0  0  0  0  0  0  0  0  0  0  0
    0.0021   -0.0041    0.0020 C   0  0  0  0  0  0  0  0  0  0  0  0
   -1.4333   -0.5336    0.0129 C   0  0  0  0  0  0  0  0  0  0  0  0
   -1.4126   -2.0635    0.0045 C   0  0  0  0  0  0  0  0  0  0  0  0
   -2.7532   -2.5581    0.0146 O   0  0  0  0  0  0  0  0  0  0  0  0
   -2.9122   -3.9011    0.0089 C   0  0  0  0  0  0  0  0  0  0  0  0
   -4.2081   -4.4475    0.0125 C   0  0  0  0  0  0  0  0  0  0  0  0
   -4.3566   -5.8347    0.0061 C   0  0  0  0  0  0  0  0  0  0  0  0
   -3.1987   -6.6245   -0.0037 C   0  0  0  0  0  0  0  0  0  0  0  0
   -1.9464   -5.9977   -0.0067 C   0  0  0  0  0  0  0  0  0  0  0  0
   -1.8463   -4.6859   -0.0055 N   0  0  0  0  0  0  0  0  0  0  0  0
   -3.2975   -8.0904   -0.0103 C   0  0  0  0  0  0  0  0  0  0  0  0
   -4.3863   -8.6249   -0.0073 O   0  0  0  0  0  0  0  0  0  0  0  0
   -2.0461   -8.9300   -0.0208 C   0  0  0  0  0  0  0  0  0  0  0  0
   -5.3917   -3.5678    0.0234 C   0  0  0  0  0  0  0  0  0  0  0  0
   -6.6261   -4.1403    0.0320 N   0  0  0  0  0  0  0  0  0  0  0  0
   -7.7645   -3.3449    0.0419 C   0  0  0  0  0  0  0  0  0  0  0  0
   -9.1016   -3.5580    0.0511 C   0  0  0  0  0  0  0  0  0  0  0  0
   -9.6951   -2.3430    0.0575 N   0  0  0  0  0  0  0  0  0  0  0  0
   -8.8082   -1.4096    0.0527 N   0  0  0  0  0  0  0  0  0  0  0  0
   -7.6046   -1.9310    0.0432 C   0  0  0  0  0  0  0  0  0  0  0  0
   -6.2296   -1.3985    0.0339 C   0  0  0  0  0  0  0  0  0  0  0  0
   -5.2057   -2.2651    0.0296 N   0  0  0  0  0  0  0  0  0  0  0  0
   -6.0276   -0.1962    0.0345 O   0  0  0  0  0  0  0  0  0  0  0  0
  -11.1430   -2.1200    0.0674 C   0  0  0  0  0  0  0  0  0  0  0  0
  -11.5462   -1.3179   -1.1732 C   0  0  0  0  0  0  0  0  0  0  0  0
  -13.0461   -1.0204   -1.1163 C   0  0  0  0  0  0  0  0  0  0  0  0
  -13.3488   -0.2423    0.0910 N   0  3  0  0  0  0  0  0  0  0  0  0
  -13.0316   -1.0334    1.2860 C   0  0  0  0  0  0  0  0  0  0  0  0
  -11.5311   -1.3314    1.3215 C   0  0  0  0  0  0  0  0  0  0  0  0
  -14.7756    0.1072    0.1015 C   0  0  0  0  0  0  0  0  0  0  0  0
  -15.0678    1.0220    1.2926 C   0  0  0  0  0  0  0  0  0  0  0  0
   -9.7965   -4.8952    0.0533 C   0  0  0  0  0  0  0  0  0  0  0  0
  -10.0415   -5.3450   -1.3884 C   0  0  0  0  0  0  0  0  0  0  0  0
    1.0039    1.9031    0.0027 H   0  0  0  0  0  0  0  0  0  0  0  0
   -0.5459    1.8868   -0.8726 H   0  0  0  0  0  0  0  0  0  0  0  0
   -0.5289    1.8773    0.9072 H   0  0  0  0  0  0  0  0  0  0  0  0
    0.5123   -0.3556   -0.8948 H   0  0  0  0  0  0  0  0  0  0  0  0
    0.5293   -0.3651    0.8851 H   0  0  0  0  0  0  0  0  0  0  0  0
   -1.9435   -0.1821    0.9097 H   0  0  0  0  0  0  0  0  0  0  0  0
   -1.9605   -0.1726   -0.8702 H   0  0  0  0  0  0  0  0  0  0  0  0
   -0.9024   -2.4150   -0.8923 H   0  0  0  0  0  0  0  0  0  0  0  0
   -0.8854   -2.4246    0.8875 H   0  0  0  0  0  0  0  0  0  0  0  0
   -5.3370   -6.2876    0.0089 H   0  0  0  0  0  0  0  0  0  0  0  0
   -1.0499   -6.5999   -0.0139 H   0  0  0  0  0  0  0  0  0  0  0  0
   -1.7390   -9.1374    1.0043 H   0  0  0  0  0  0  0  0  0  0  0  0
   -2.2428   -9.8690   -0.5382 H   0  0  0  0  0  0  0  0  0  0  0  0
   -1.2512   -8.3908   -0.5362 H   0  0  0  0  0  0  0  0  0  0  0  0
  -11.6596   -3.0799    0.0661 H   0  0  0  0  0  0  0  0  0  0  0  0
  -10.9900   -0.3808   -1.1974 H   0  0  0  0  0  0  0  0  0  0  0  0
  -11.3238   -1.8972   -2.0693 H   0  0  0  0  0  0  0  0  0  0  0  0
  -13.3366   -0.4496   -1.9982 H   0  0  0  0  0  0  0  0  0  0  0  0
  -13.6014   -1.9581   -1.0924 H   0  0  0  0  0  0  0  0  0  0  0  0
  -13.3113   -0.4722    2.1775 H   0  0  0  0  0  0  0  0  0  0  0  0
  -13.5872   -1.9708    1.2587 H   0  0  0  0  0  0  0  0  0  0  0  0
  -11.2979   -1.9204    2.2085 H   0  0  0  0  0  0  0  0  0  0  0  0
  -10.9745   -0.3946    1.3491 H   0  0  0  0  0  0  0  0  0  0  0  0
  -15.0301    0.6234   -0.8241 H   0  0  0  0  0  0  0  0  0  0  0  0
  -15.3717   -0.8014    0.1864 H   0  0  0  0  0  0  0  0  0  0  0  0
  -16.1265    1.2813    1.3004 H   0  0  0  0  0  0  0  0  0  0  0  0
  -14.8134    0.5057    2.2183 H   0  0  0  0  0  0  0  0  0  0  0  0
  -14.4718    1.9306    1.2077 H   0  0  0  0  0  0  0  0  0  0  0  0
   -9.1708   -5.6289    0.5615 H   0  0  0  0  0  0  0  0  0  0  0  0
  -10.7502   -4.8082    0.5738 H   0  0  0  0  0  0  0  0  0  0  0  0
  -10.6672   -4.6113   -1.8966 H   0  0  0  0  0  0  0  0  0  0  0  0
   -9.0877   -5.4320   -1.9089 H   0  0  0  0  0  0  0  0  0  0  0  0
  -10.5440   -6.3123   -1.3868 H   0  0  0  0  0  0  0  0  0  0  0  0
  -12.7976    0.6028    0.0922 H   0  0  0  0  0  0  0  0  0  0  0  0
   -6.7111   -5.1066    0.0310 H   0  0  0  0  0  0  0  0  0  0  0  0
  1  2  1  0  0  0  0
  1 35  1  0  0  0  0
  1 36  1  0  0  0  0
  1 37  1  0  0  0  0
  2  3  1  0  0  0  0
  2 38  1  0  0  0  0
  2 39  1  0  0  0  0
  3  4  1  0  0  0  0
  3 40  1  0  0  0  0
  3 41  1  0  0  0  0
  4  5  1  0  0  0  0
  4 42  1  0  0  0  0
  4 43  1  0  0  0  0
  5  6  1  0  0  0  0
  6 11  2  0  0  0  0
  6  7  1  0  0  0  0
  7  8  2  0  0  0  0
  7 15  1  0  0  0  0
  8  9  1  0  0  0  0
  8 44  1  0  0  0  0
  9 10  2  0  0  0  0
  9 12  1  0  0  0  0
 10 11  1  0  0  0  0
 10 45  1  0  0  0  0
 12 13  2  0  0  0  0
 12 14  1  0  0  0  0
 14 46  1  0  0  0  0
 14 47  1  0  0  0  0
 14 48  1  0  0  0  0
 15 23  2  0  0  0  0
 15 16  1  0  0  0  0
 16 17  1  0  0  0  0
 16 69  1  0  0  0  0
 17 21  1  0  0  0  0
 17 18  2  0  0  0  0
 18 19  1  0  0  0  0
 18 33  1  0  0  0  0
 19 20  1  0  0  0  0
 19 25  1  0  0  0  0
 20 21  2  0  0  0  0
 21 22  1  0  0  0  0
 22 23  1  0  0  0  0
 22 24  2  0  0  0  0
 25 30  1  0  0  0  0
 25 26  1  0  0  0  0
 25 49  1  0  0  0  0
 26 27  1  0  0  0  0
 26 50  1  0  0  0  0
 26 51  1  0  0  0  0
 27 28  1  0  0  0  0
 27 52  1  0  0  0  0
 27 53  1  0  0  0  0
 28 29  1  0  0  0  0
 28 31  1  0  0  0  0
 28 68  1  0  0  0  0
 29 30  1  0  0  0  0
 29 54  1  0  0  0  0
 29 55  1  0  0  0  0
 30 56  1  0  0  0  0
 30 57  1  0  0  0  0
 31 32  1  0  0  0  0
 31 58  1  0  0  0  0
 31 59  1  0  0  0  0
 32 60  1  0  0  0  0
 32 61  1  0  0  0  0
 32 62  1  0  0  0  0
 33 34  1  0  0  0  0
 33 63  1  0  0  0  0
 33 64  1  0  0  0  0
 34 65  1  0  0  0  0
 34 66  1  0  0  0  0
 34 67  1  0  0  0  0
M  CHG  1  28   1
M  END
$$$$
CHEMBL431772
  -OEChem-07121202283D

 37 40  0     1  0  0  0  0  0999 V2000
   -0.0187    1.5258    0.0104 C   0  0  0  0  0  0  0  0  0  0  0  0
    0.0021   -0.0041    0.0020 C   0  0  0  0  0  0  0  0  0  0  0  0
    0.7106   -0.4894    1.1889 N   0  0  0  0  0  0  0  0  0  0  0  0
    2.0402   -0.6854    1.1284 C   0  0  0  0  0  0  0  0  0  0  0  0
    2.6506   -0.4632    0.0988 O   0  0  0  0  0  0  0  0  0  0  0  0
    2.7424   -1.1689    2.3173 C   0  0  0  0  0  0  0  0  0  0  0  0
    2.0072   -1.4078    3.4689 C   0  0  0  0  0  0  0  0  0  0  0  0
    2.8916   -1.8427    4.4064 N   0  0  0  0  0  0  0  0  0  0  0  0
    4.1276   -1.8638    3.8280 C   0  0  0  0  0  0  0  0  0  0  0  0
    4.0365   -1.4648    2.5926 N   0  0  0  0  0  0  0  0  0  0  0  0
    2.6821   -2.0921    5.3201 H   0  0  0  0  0  0  0  0  0  0  0  0
    5.4017   -2.2839    4.5143 C   0  0  0  0  0  0  0  0  0  0  0  0
    0.6458   -1.1886    3.4725 N   0  0  0  0  0  0  0  0  0  0  0  0
   -0.0021   -0.7320    2.3539 C   0  0  0  0  0  0  0  0  0  0  0  0
   -1.2864   -0.5780    2.5325 N   0  3  0  0  0  0  0  0  0  0  0  0
   -1.6691   -0.9343    3.9008 C   0  0  1  0  0  0  0  0  0  0  0  0
   -2.4076   -1.7357    3.9218 H   0  0  0  0  0  0  0  0  0  0  0  0
   -0.3371   -1.3675    4.5558 C   0  0  2  0  0  0  0  0  0  0  0  0
   -0.3615   -2.3919    4.9274 H   0  0  0  0  0  0  0  0  0  0  0  0
   -0.0564   -0.3385    5.6688 C   0  0  0  0  0  0  0  0  0  0  0  0
   -0.8542    0.9175    5.2399 C   0  0  0  0  0  0  0  0  0  0  0  0
   -2.1657    0.3251    4.6396 C   0  0  0  0  0  0  0  0  0  0  0  0
    1.0039    1.9031    0.0027 H   0  0  0  0  0  0  0  0  0  0  0  0
   -0.5459    1.8868   -0.8726 H   0  0  0  0  0  0  0  0  0  0  0  0
   -0.5289    1.8773    0.9072 H   0  0  0  0  0  0  0  0  0  0  0  0
   -1.0205   -0.3814    0.0098 H   0  0  0  0  0  0  0  0  0  0  0  0
    0.5123   -0.3556   -0.8948 H   0  0  0  0  0  0  0  0  0  0  0  0
    5.5514   -3.3551    4.3786 H   0  0  0  0  0  0  0  0  0  0  0  0
    6.2429   -1.7419    4.0823 H   0  0  0  0  0  0  0  0  0  0  0  0
    5.3324   -2.0588    5.5786 H   0  0  0  0  0  0  0  0  0  0  0  0
   -0.4155   -0.7084    6.6291 H   0  0  0  0  0  0  0  0  0  0  0  0
    1.0090   -0.1139    5.7202 H   0  0  0  0  0  0  0  0  0  0  0  0
   -1.0808    1.5443    6.1023 H   0  0  0  0  0  0  0  0  0  0  0  0
   -0.3088    1.4819    4.4835 H   0  0  0  0  0  0  0  0  0  0  0  0
   -2.6380    1.0157    3.9409 H   0  0  0  0  0  0  0  0  0  0  0  0
   -2.8593    0.0520    5.4348 H   0  0  0  0  0  0  0  0  0  0  0  0
   -1.9038   -0.2692    1.8510 H   0  0  0  0  0  0  0  0  0  0  0  0
  1  2  1  0  0  0  0
  1 23  1  0  0  0  0
  1 24  1  0  0  0  0
  1 25  1  0  0  0  0
  2  3  1  0  0  0  0
  2 26  1  0  0  0  0
  2 27  1  0  0  0  0
  3 14  1  0  0  0  0
  3  4  1  0  0  0  0
  4  5  2  0  0  0  0
  4  6  1  0  0  0  0
  6 10  1  0  0  0  0
  6  7  2  0  0  0  0
  7 13  1  0  0  0  0
  7  8  1  0  0  0  0
  8  9  1  0  0  0  0
  8 11  1  0  0  0  0
  9 12  1  0  0  0  0
  9 10  2  0  0  0  0
 12 28  1  0  0  0  0
 12 29  1  0  0  0  0
 12 30  1  0  0  0  0
 13 18  1  0  0  0  0
 13 14  1  0  0  0  0
 14 15  2  0  0  0  0
 15 16  1  0  0  0  0
 15 37  1  0  0  0  0
 16 17  1  0  0  0  0
 16 22  1  0  0  0  0
 16 18  1  0  0  0  0
 18 19  1  0  0  0  0
 18 20  1  0  0  0  0
 20 21  1  0  0  0  0
 20 31  1  0  0  0  0
 20 32  1  0  0  0  0
 21 22  1  0  0  0  0
 21 33  1  0  0  0  0
 21 34  1  0  0  0  0
 22 35  1  0  0  0  0
 22 36  1  0  0  0  0
M  CHG  1  15   1
M  END
$$$$
CHEMBL431772
  -OEChem-07121202283D

 37 40  0     1  0  0  0  0  0999 V2000
   -0.0187    1.5258    0.0104 C   0  0  0  0  0  0  0  0  0  0  0  0
    0.0021   -0.0041    0.0020 C   0  0  0  0  0  0  0  0  0  0  0  0
    0.7106   -0.4894    1.1889 N   0  0  0  0  0  0  0  0  0  0  0  0
    2.0395   -0.6857    1.1296 C   0  0  0  0  0  0  0  0  0  0  0  0
    2.6440   -0.4610    0.0963 O   0  0  0  0  0  0  0  0  0  0  0  0
    2.7323   -1.1520    2.2666 C   0  0  0  0  0  0  0  0  0  0  0  0
    2.0299   -1.4014    3.4363 C   0  0  0  0  0  0  0  0  0  0  0  0
    2.9123   -1.8269    4.3455 N   0  0  0  0  0  0  0  0  0  0  0  0
    4.1102   -1.8584    3.8198 C   0  0  0  0  0  0  0  0  0  0  0  0
    4.0540   -1.4509    2.5371 N   0  0  0  0  0  0  0  0  0  0  0  0
    4.7995   -1.3810    1.9205 H   0  0  0  0  0  0  0  0  0  0  0  0
    5.3629   -2.2854    4.5404 C   0  0  0  0  0  0  0  0  0  0  0  0
    0.6592   -1.1889    3.4661 N   0  0  0  0  0  0  0  0  0  0  0  0
   -0.0010   -0.7323    2.3543 C   0  0  0  0  0  0  0  0  0  0  0  0
   -1.2830   -0.5829    2.5451 N   0  3  0  0  0  0  0  0  0  0  0  0
   -1.6508   -0.9423    3.9172 C   0  0  1  0  0  0  0  0  0  0  0  0
   -2.3859   -1.7466    3.9447 H   0  0  0  0  0  0  0  0  0  0  0  0
   -0.3105   -1.3716    4.5586 C   0  0  2  0  0  0  0  0  0  0  0  0
   -0.3269   -2.3962    4.9301 H   0  0  0  0  0  0  0  0  0  0  0  0
   -0.0239   -0.3419    5.6695 C   0  0  0  0  0  0  0  0  0  0  0  0
   -0.8312    0.9108    5.2488 C   0  0  0  0  0  0  0  0  0  0  0  0
   -2.1449    0.3145    4.6618 C   0  0  0  0  0  0  0  0  0  0  0  0
    1.0039    1.9031    0.0027 H   0  0  0  0  0  0  0  0  0  0  0  0
   -0.5459    1.8868   -0.8726 H   0  0  0  0  0  0  0  0  0  0  0  0
   -0.5289    1.8773    0.9072 H   0  0  0  0  0  0  0  0  0  0  0  0
   -1.0205   -0.3814    0.0098 H   0  0  0  0  0  0  0  0  0  0  0  0
    0.5123   -0.3556   -0.8948 H   0  0  0  0  0  0  0  0  0  0  0  0
    5.5077   -3.3582    4.4129 H   0  0  0  0  0  0  0  0  0  0  0  0
    6.2192   -1.7517    4.1279 H   0  0  0  0  0  0  0  0  0  0  0  0
    5.2681   -2.0552    5.6016 H   0  0  0  0  0  0  0  0  0  0  0  0
   -0.3724   -0.7139    6.6329 H   0  0  0  0  0  0  0  0  0  0  0  0
    1.0409   -0.1127    5.7111 H   0  0  0  0  0  0  0  0  0  0  0  0
   -1.0523    1.5362    6.1137 H   0  0  0  0  0  0  0  0  0  0  0  0
   -0.2956    1.4778    4.4874 H   0  0  0  0  0  0  0  0  0  0  0  0
   -2.6267    1.0038    3.9683 H   0  0  0  0  0  0  0  0  0  0  0  0
   -2.8297    0.0381    5.4635 H   0  0  0  0  0  0  0  0  0  0  0  0
   -1.9080   -0.2753    1.8701 H   0  0  0  0  0  0  0  0  0  0  0  0
  1  2  1  0  0  0  0
  1 23  1  0  0  0  0
  1 24  1  0  0  0  0
  1 25  1  0  0  0  0
  2  3  1  0  0  0  0
  2 26  1  0  0  0  0
  2 27  1  0  0  0  0
  3 14  1  0  0  0  0
  3  4  1  0  0  0  0
  4  5  2  0  0  0  0
  4  6  1  0  0  0  0
  6 10  1  0  0  0  0
  6  7  2  0  0  0  0
  7  8  1  0  0  0  0
  7 13  1  0  0  0  0
  8  9  2  0  0  0  0
  9 10  1  0  0  0  0
  9 12  1  0  0  0  0
 10 11  1  0  0  0  0
 12 28  1  0  0  0  0
 12 29  1  0  0  0  0
 12 30  1  0  0  0  0
 13 18  1  0  0  0  0
 13 14  1  0  0  0  0
 14 15  2  0  0  0  0
 15 16  1  0  0  0  0
 15 37  1  0  0  0  0
 16 17  1  0  0  0  0
 16 22  1  0  0  0  0
 16 18  1  0  0  0  0
 18 19  1  0  0  0  0
 18 20  1  0  0  0  0
 20 21  1  0  0  0  0
 20 31  1  0  0  0  0
 20 32  1  0  0  0  0
 21 22  1  0  0  0  0
 21 33  1  0  0  0  0
 21 34  1  0  0  0  0
 22 35  1  0  0  0  0
 22 36  1  0  0  0  0
M  CHG  1  15   1
M  END
$$$$
CHEMBL584285
  -OEChem-07121202283D

 70 73  0     0  0  0  0  0  0999 V2000
   -0.0187    1.5258    0.0104 C   0  0  0  0  0  0  0  0  0  0  0  0
    0.0021   -0.0041    0.0020 C   0  0  0  0  0  0  0  0  0  0  0  0
   -1.4333   -0.5336    0.0129 C   0  0  0  0  0  0  0  0  0  0  0  0
   -1.4139   -1.9625    0.0050 O   0  0  0  0  0  0  0  0  0  0  0  0
   -2.7113   -2.5614    0.0142 C   0  0  0  0  0  0  0  0  0  0  0  0
   -2.5698   -4.0848    0.0047 C   0  0  0  0  0  0  0  0  0  0  0  0
   -1.9315   -4.5238    1.2481 N   0  0  0  0  0  0  0  0  0  0  0  0
   -0.5552   -4.6259    1.3321 C   0  0  0  0  0  0  0  0  0  0  0  0
    0.2383   -4.3122    0.2334 C   0  0  0  0  0  0  0  0  0  0  0  0
    1.6218   -4.4290    0.3629 C   0  0  0  0  0  0  0  0  0  0  0  0
    2.1594   -4.8539    1.5828 C   0  0  0  0  0  0  0  0  0  0  0  0
    1.3858   -5.1427    2.6017 N   0  0  0  0  0  0  0  0  0  0  0  0
    0.0556   -5.0467    2.5273 C   0  0  0  0  0  0  0  0  0  0  0  0
   -0.6954   -5.3552    3.6048 N   0  0  0  0  0  0  0  0  0  0  0  0
   -2.0011   -5.2721    3.5660 C   0  0  0  0  0  0  0  0  0  0  0  0
   -2.6788   -4.8295    2.3316 C   0  0  0  0  0  0  0  0  0  0  0  0
   -3.8922   -4.7448    2.2892 O   0  0  0  0  0  0  0  0  0  0  0  0
   -2.7459   -5.5940    4.6838 N   0  0  0  0  0  0  0  0  0  0  0  0
   -2.0743   -6.0280    5.9114 C   0  0  0  0  0  0  0  0  0  0  0  0
   -3.1047   -6.3162    6.9726 C   0  0  0  0  0  0  0  0  0  0  0  0
   -4.2839   -6.1731    6.7277 O   0  0  0  0  0  0  0  0  0  0  0  0
   -2.7159   -6.7330    8.1939 N   0  0  0  0  0  0  0  0  0  0  0  0
   -1.2910   -6.9076    8.5154 C   0  0  0  0  0  0  0  0  0  0  0  0
   -0.9943   -6.1690    9.8246 C   0  0  0  0  0  0  0  0  0  0  0  0
   -1.9132   -6.6383   10.8693 N   0  3  0  0  0  0  0  0  0  0  0  0
   -3.2937   -6.2814   10.5184 C   0  0  0  0  0  0  0  0  0  0  0  0
   -3.7039   -7.0202    9.2453 C   0  0  0  0  0  0  0  0  0  0  0  0
   -1.5576   -6.0116   12.1495 C   0  0  0  0  0  0  0  0  0  0  0  0
    2.5122   -4.1074   -0.7781 C   0  0  0  0  0  0  0  0  0  0  0  0
    3.9009   -4.2296   -0.6515 C   0  0  0  0  0  0  0  0  0  0  0  0
    4.6894   -3.9185   -1.7421 C   0  0  0  0  0  0  0  0  0  0  0  0
    4.0833   -3.4976   -2.9204 C   0  0  0  0  0  0  0  0  0  0  0  0
    2.7674   -3.3924   -3.0078 N   0  0  0  0  0  0  0  0  0  0  0  0
    1.9788   -3.6848   -1.9930 C   0  0  0  0  0  0  0  0  0  0  0  0
    4.8517   -3.1900   -3.9951 O   0  0  0  0  0  0  0  0  0  0  0  0
    4.1724   -2.7634   -5.1777 C   0  0  0  0  0  0  0  0  0  0  0  0
    1.0039    1.9031    0.0027 H   0  0  0  0  0  0  0  0  0  0  0  0
   -0.5459    1.8868   -0.8726 H   0  0  0  0  0  0  0  0  0  0  0  0
   -0.5289    1.8773    0.9072 H   0  0  0  0  0  0  0  0  0  0  0  0
    0.5123   -0.3556   -0.8948 H   0  0  0  0  0  0  0  0  0  0  0  0
    0.5293   -0.3651    0.8851 H   0  0  0  0  0  0  0  0  0  0  0  0
   -1.9435   -0.1821    0.9097 H   0  0  0  0  0  0  0  0  0  0  0  0
   -1.9605   -0.1726   -0.8702 H   0  0  0  0  0  0  0  0  0  0  0  0
   -3.2480   -2.2520    0.9110 H   0  0  0  0  0  0  0  0  0  0  0  0
   -3.2650   -2.2424   -0.8688 H   0  0  0  0  0  0  0  0  0  0  0  0
   -3.5564   -4.5409   -0.0779 H   0  0  0  0  0  0  0  0  0  0  0  0
   -1.9574   -4.3876   -0.8447 H   0  0  0  0  0  0  0  0  0  0  0  0
   -0.2057   -3.9870   -0.6959 H   0  0  0  0  0  0  0  0  0  0  0  0
    3.2304   -4.9460    1.6871 H   0  0  0  0  0  0  0  0  0  0  0  0
   -3.7135   -5.5327    4.6560 H   0  0  0  0  0  0  0  0  0  0  0  0
   -1.4976   -6.9308    5.7103 H   0  0  0  0  0  0  0  0  0  0  0  0
   -1.4062   -5.2398    6.2582 H   0  0  0  0  0  0  0  0  0  0  0  0
   -1.0698   -7.9682    8.6350 H   0  0  0  0  0  0  0  0  0  0  0  0
   -0.6810   -6.4914    7.7137 H   0  0  0  0  0  0  0  0  0  0  0  0
    0.0334   -6.3670   10.1289 H   0  0  0  0  0  0  0  0  0  0  0  0
   -1.1295   -5.0976    9.6762 H   0  0  0  0  0  0  0  0  0  0  0  0
   -3.9602   -6.5623   11.3339 H   0  0  0  0  0  0  0  0  0  0  0  0
   -3.3593   -5.2066   10.3490 H   0  0  0  0  0  0  0  0  0  0  0  0
   -4.6885   -6.6784    8.9259 H   0  0  0  0  0  0  0  0  0  0  0  0
   -3.7306   -8.0924    9.4398 H   0  0  0  0  0  0  0  0  0  0  0  0
   -1.6342   -4.9282   12.0572 H   0  0  0  0  0  0  0  0  0  0  0  0
   -2.2391   -6.3592   12.9259 H   0  0  0  0  0  0  0  0  0  0  0  0
   -0.5358   -6.2823   12.4151 H   0  0  0  0  0  0  0  0  0  0  0  0
    4.3450   -4.5588    0.2763 H   0  0  0  0  0  0  0  0  0  0  0  0
    5.7644   -4.0010   -1.6801 H   0  0  0  0  0  0  0  0  0  0  0  0
    0.9085   -3.5916   -2.1034 H   0  0  0  0  0  0  0  0  0  0  0  0
    3.4996   -3.5520   -5.5147 H   0  0  0  0  0  0  0  0  0  0  0  0
    3.5973   -1.8630   -4.9616 H   0  0  0  0  0  0  0  0  0  0  0  0
    4.9019   -2.5498   -5.9588 H   0  0  0  0  0  0  0  0  0  0  0  0
   -1.8380   -7.6408   10.9561 H   0  0  0  0  0  0  0  0  0  0  0  0
  1  2  1  0  0  0  0
  1 37  1  0  0  0  0
  1 38  1  0  0  0  0
  1 39  1  0  0  0  0
  2  3  1  0  0  0  0
  2 40  1  0  0  0  0
  2 41  1  0  0  0  0
  3  4  1  0  0  0  0
  3 42  1  0  0  0  0
  3 43  1  0  0  0  0
  4  5  1  0  0  0  0
  5  6  1  0  0  0  0
  5 44  1  0  0  0  0
  5 45  1  0  0  0  0
  6  7  1  0  0  0  0
  6 46  1  0  0  0  0
  6 47  1  0  0  0  0
  7 16  1  0  0  0  0
  7  8  1  0  0  0  0
  8 13  2  0  0  0  0
  8  9  1  0  0  0  0
  9 10  2  0  0  0  0
  9 48  1  0  0  0  0
 10 11  1  0  0  0  0
 10 29  1  0  0  0  0
 11 12  2  0  0  0  0
 11 49  1  0  0  0  0
 12 13  1  0  0  0  0
 13 14  1  0  0  0  0
 14 15  2  0  0  0  0
 15 16  1  0  0  0  0
 15 18  1  0  0  0  0
 16 17  2  0  0  0  0
 18 19  1  0  0  0  0
 18 50  1  0  0  0  0
 19 20  1  0  0  0  0
 19 51  1  0  0  0  0
 19 52  1  0  0  0  0
 20 21  2  0  0  0  0
 20 22  1  0  0  0  0
 22 27  1  0  0  0  0
 22 23  1  0  0  0  0
 23 24  1  0  0  0  0
 23 53  1  0  0  0  0
 23 54  1  0  0  0  0
 24 25  1  0  0  0  0
 24 55  1  0  0  0  0
 24 56  1  0  0  0  0
 25 26  1  0  0  0  0
 25 28  1  0  0  0  0
 25 70  1  0  0  0  0
 26 27  1  0  0  0  0
 26 57  1  0  0  0  0
 26 58  1  0  0  0  0
 27 59  1  0  0  0  0
 27 60  1  0  0  0  0
 28 61  1  0  0  0  0
 28 62  1  0  0  0  0
 28 63  1  0  0  0  0
 29 34  2  0  0  0  0
 29 30  1  0  0  0  0
 30 31  2  0  0  0  0
 30 64  1  0  0  0  0
 31 32  1  0  0  0  0
 31 65  1  0  0  0  0
 32 33  2  0  0  0  0
 32 35  1  0  0  0  0
 33 34  1  0  0  0  0
 34 66  1  0  0  0  0
 35 36  1  0  0  0  0
 36 67  1  0  0  0  0
 36 68  1  0  0  0  0
 36 69  1  0  0  0  0
M  CHG  1  25   1
M  END
$$$$
CHEMBL584285
  -OEChem-07121202283D

 69 72  0     0  0  0  0  0  0999 V2000
   -0.0187    1.5258    0.0104 C   0  0  0  0  0  0  0  0  0  0  0  0
    0.0021   -0.0041    0.0020 C   0  0  0  0  0  0  0  0  0  0  0  0
   -1.4333   -0.5336    0.0129 C   0  0  0  0  0  0  0  0  0  0  0  0
   -1.4139   -1.9625    0.0050 O   0  0  0  0  0  0  0  0  0  0  0  0
   -2.7113   -2.5614    0.0142 C   0  0  0  0  0  0  0  0  0  0  0  0
   -2.5698   -4.0848    0.0047 C   0  0  0  0  0  0  0  0  0  0  0  0
   -1.9315   -4.5238    1.2481 N   0  0  0  0  0  0  0  0  0  0  0  0
   -0.5552   -4.6259    1.3321 C   0  0  0  0  0  0  0  0  0  0  0  0
    0.2383   -4.3122    0.2334 C   0  0  0  0  0  0  0  0  0  0  0  0
    1.6218   -4.4290    0.3629 C   0  0  0  0  0  0  0  0  0  0  0  0
    2.1594   -4.8539    1.5828 C   0  0  0  0  0  0  0  0  0  0  0  0
    1.3858   -5.1427    2.6017 N   0  0  0  0  0  0  0  0  0  0  0  0
    0.0556   -5.0467    2.5273 C   0  0  0  0  0  0  0  0  0  0  0  0
   -0.6954   -5.3552    3.6048 N   0  0  0  0  0  0  0  0  0  0  0  0
   -2.0011   -5.2721    3.5660 C   0  0  0  0  0  0  0  0  0  0  0  0
   -2.6788   -4.8295    2.3316 C   0  0  0  0  0  0  0  0  0  0  0  0
   -3.8922   -4.7448    2.2892 O   0  0  0  0  0  0  0  0  0  0  0  0
   -2.7459   -5.5940    4.6838 N   0  0  0  0  0  0  0  0  0  0  0  0
   -2.0743   -6.0280    5.9114 C   0  0  0  0  0  0  0  0  0  0  0  0
   -3.1047   -6.3162    6.9726 C   0  0  0  0  0  0  0  0  0  0  0  0
   -4.2839   -6.1731    6.7277 O   0  0  0  0  0  0  0  0  0  0  0  0
   -2.7159   -6.7330    8.1939 N   0  0  0  0  0  0  0  0  0  0  0  0
   -1.2909   -6.9072    8.5138 C   0  0  0  0  0  0  0  0  0  0  0  0
   -0.9879   -6.1532    9.8130 C   0  0  0  0  0  0  0  0  0  0  0  0
   -1.9182   -6.5953   10.8604 N   0  0  0  0  0  0  0  0  0  0  0  0
   -3.3072   -6.2669   10.5127 C   0  0  0  0  0  0  0  0  0  0  0  0
   -3.7049   -7.0198    9.2441 C   0  0  0  0  0  0  0  0  0  0  0  0
   -1.5529   -6.0250   12.1639 C   0  0  0  0  0  0  0  0  0  0  0  0
    2.5122   -4.1074   -0.7781 C   0  0  0  0  0  0  0  0  0  0  0  0
    3.9009   -4.2296   -0.6515 C   0  0  0  0  0  0  0  0  0  0  0  0
    4.6894   -3.9185   -1.7421 C   0  0  0  0  0  0  0  0  0  0  0  0
    4.0833   -3.4976   -2.9204 C   0  0  0  0  0  0  0  0  0  0  0  0
    2.7674   -3.3924   -3.0078 N   0  0  0  0  0  0  0  0  0  0  0  0
    1.9788   -3.6848   -1.9930 C   0  0  0  0  0  0  0  0  0  0  0  0
    4.8517   -3.1900   -3.9951 O   0  0  0  0  0  0  0  0  0  0  0  0
    4.1724   -2.7634   -5.1777 C   0  0  0  0  0  0  0  0  0  0  0  0
    1.0039    1.9031    0.0027 H   0  0  0  0  0  0  0  0  0  0  0  0
   -0.5459    1.8868   -0.8726 H   0  0  0  0  0  0  0  0  0  0  0  0
   -0.5289    1.8773    0.9072 H   0  0  0  0  0  0  0  0  0  0  0  0
    0.5123   -0.3556   -0.8948 H   0  0  0  0  0  0  0  0  0  0  0  0
    0.5293   -0.3651    0.8851 H   0  0  0  0  0  0  0  0  0  0  0  0
   -1.9435   -0.1821    0.9097 H   0  0  0  0  0  0  0  0  0  0  0  0
   -1.9605   -0.1726   -0.8702 H   0  0  0  0  0  0  0  0  0  0  0  0
   -3.2480   -2.2520    0.9110 H   0  0  0  0  0  0  0  0  0  0  0  0
   -3.2650   -2.2424   -0.8688 H   0  0  0  0  0  0  0  0  0  0  0  0
   -3.5564   -4.5409   -0.0779 H   0  0  0  0  0  0  0  0  0  0  0  0
   -1.9574   -4.3876   -0.8447 H   0  0  0  0  0  0  0  0  0  0  0  0
   -0.2057   -3.9870   -0.6959 H   0  0  0  0  0  0  0  0  0  0  0  0
    3.2304   -4.9460    1.6871 H   0  0  0  0  0  0  0  0  0  0  0  0
   -3.7135   -5.5327    4.6560 H   0  0  0  0  0  0  0  0  0  0  0  0
   -1.4976   -6.9308    5.7103 H   0  0  0  0  0  0  0  0  0  0  0  0
   -1.4062   -5.2398    6.2582 H   0  0  0  0  0  0  0  0  0  0  0  0
   -1.0722   -7.9668    8.6459 H   0  0  0  0  0  0  0  0  0  0  0  0
   -0.6820   -6.5028    7.7052 H   0  0  0  0  0  0  0  0  0  0  0  0
    0.0357   -6.3614   10.1242 H   0  0  0  0  0  0  0  0  0  0  0  0
   -1.1077   -5.0823    9.6485 H   0  0  0  0  0  0  0  0  0  0  0  0
   -3.9655   -6.5577   11.3313 H   0  0  0  0  0  0  0  0  0  0  0  0
   -3.3947   -5.1945   10.3384 H   0  0  0  0  0  0  0  0  0  0  0  0
   -4.6913   -6.6898    8.9180 H   0  0  0  0  0  0  0  0  0  0  0  0
   -3.7227   -8.0904    9.4477 H   0  0  0  0  0  0  0  0  0  0  0  0
   -1.5835   -4.9369   12.1059 H   0  0  0  0  0  0  0  0  0  0  0  0
   -2.2578   -6.3684   12.9211 H   0  0  0  0  0  0  0  0  0  0  0  0
   -0.5465   -6.3464   12.4320 H   0  0  0  0  0  0  0  0  0  0  0  0
    4.3450   -4.5588    0.2763 H   0  0  0  0  0  0  0  0  0  0  0  0
    5.7644   -4.0010   -1.6801 H   0  0  0  0  0  0  0  0  0  0  0  0
    0.9085   -3.5916   -2.1034 H   0  0  0  0  0  0  0  0  0  0  0  0
    3.4996   -3.5520   -5.5147 H   0  0  0  0  0  0  0  0  0  0  0  0
    3.5973   -1.8630   -4.9616 H   0  0  0  0  0  0  0  0  0  0  0  0
    4.9019   -2.5498   -5.9588 H   0  0  0  0  0  0  0  0  0  0  0  0
  1  2  1  0  0  0  0
  1 37  1  0  0  0  0
  1 38  1  0  0  0  0
  1 39  1  0  0  0  0
  2  3  1  0  0  0  0
  2 40  1  0  0  0  0
  2 41  1  0  0  0  0
  3  4  1  0  0  0  0
  3 42  1  0  0  0  0
  3 43  1  0  0  0  0
  4  5  1  0  0  0  0
  5  6  1  0  0  0  0
  5 44  1  0  0  0  0
  5 45  1  0  0  0  0
  6  7  1  0  0  0  0
  6 46  1  0  0  0  0
  6 47  1  0  0  0  0
  7 16  1  0  0  0  0
  7  8  1  0  0  0  0
  8 13  2  0  0  0  0
  8  9  1  0  0  0  0
  9 10  2  0  0  0  0
  9 48  1  0  0  0  0
 10 11  1  0  0  0  0
 10 29  1  0  0  0  0
 11 12  2  0  0  0  0
 11 49  1  0  0  0  0
 12 13  1  0  0  0  0
 13 14  1  0  0  0  0
 14 15  2  0  0  0  0
 15 16  1  0  0  0  0
 15 18  1  0  0  0  0
 16 17  2  0  0  0  0
 18 19  1  0  0  0  0
 18 50  1  0  0  0  0
 19 20  1  0  0  0  0
 19 51  1  0  0  0  0
 19 52  1  0  0  0  0
 20 21  2  0  0  0  0
 20 22  1  0  0  0  0
 22 27  1  0  0  0  0
 22 23  1  0  0  0  0
 23 24  1  0  0  0  0
 23 53  1  0  0  0  0
 23 54  1  0  0  0  0
 24 25  1  0  0  0  0
 24 55  1  0  0  0  0
 24 56  1  0  0  0  0
 25 26  1  0  0  0  0
 25 28  1  0  0  0  0
 26 27  1  0  0  0  0
 26 57  1  0  0  0  0
 26 58  1  0  0  0  0
 27 59  1  0  0  0  0
 27 60  1  0  0  0  0
 28 61  1  0  0  0  0
 28 62  1  0  0  0  0
 28 63  1  0  0  0  0
 29 34  2  0  0  0  0
 29 30  1  0  0  0  0
 30 31  2  0  0  0  0
 30 64  1  0  0  0  0
 31 32  1  0  0  0  0
 31 65  1  0  0  0  0
 32 33  2  0  0  0  0
 32 35  1  0  0  0  0
 33 34  1  0  0  0  0
 34 66  1  0  0  0  0
 35 36  1  0  0  0  0
 36 67  1  0  0  0  0
 36 68  1  0  0  0  0
 36 69  1  0  0  0  0
M  END
$$$$
CHEMBL77795
  -OEChem-07121202283D

 73 77  0     0  0  0  0  0  0999 V2000
    0.4880    1.3225    0.5104 C   0  0  0  0  0  0  0  0  0  0  0  0
    0.3702   -0.1734    0.3710 C   0  0  0  0  0  0  0  0  0  0  0  0
    0.2878   -0.7378   -0.8881 C   0  0  0  0  0  0  0  0  0  0  0  0
    0.1797   -2.1148   -1.0053 C   0  0  0  0  0  0  0  0  0  0  0  0
    0.1585   -2.8762    0.1535 C   0  0  0  0  0  0  0  0  0  0  0  0
    0.2451   -2.2415    1.3779 C   0  0  0  0  0  0  0  0  0  0  0  0
    0.3523   -0.9291    1.4513 N   0  0  0  0  0  0  0  0  0  0  0  0
    0.0870   -2.7689   -2.3598 C   0  0  0  0  0  0  0  0  0  0  0  0
    1.4325   -2.9348   -2.9151 N   0  0  0  0  0  0  0  0  0  0  0  0
    1.9424   -1.9462   -3.7291 C   0  0  0  0  0  0  0  0  0  0  0  0
    3.2045   -2.0438   -4.2833 C   0  0  0  0  0  0  0  0  0  0  0  0
    4.0161   -3.2333   -3.9928 C   0  0  0  0  0  0  0  0  0  0  0  0
    5.2991   -3.4141   -4.5087 C   0  0  0  0  0  0  0  0  0  0  0  0
    5.9868   -4.5648   -4.1801 C   0  0  0  0  0  0  0  0  0  0  0  0
    5.4578   -5.4868   -3.3950 N   0  0  0  0  0  0  0  0  0  0  0  0
    4.2460   -5.3702   -2.8767 C   0  0  0  0  0  0  0  0  0  0  0  0
    3.4753   -4.2356   -3.1560 C   0  0  0  0  0  0  0  0  0  0  0  0
    2.1298   -4.0455   -2.6077 C   0  0  0  0  0  0  0  0  0  0  0  0
    1.6417   -4.8912   -1.8802 O   0  0  0  0  0  0  0  0  0  0  0  0
    3.7526   -6.3463   -2.0778 O   0  0  0  0  0  0  0  0  0  0  0  0
    4.5951   -7.4750   -1.8366 C   0  0  0  0  0  0  0  0  0  0  0  0
    3.8835   -8.4491   -0.9334 C   0  0  0  0  0  0  0  0  0  0  0  0
    2.6066   -8.1612   -0.4891 C   0  0  0  0  0  0  0  0  0  0  0  0
    1.9608   -9.0640    0.3414 C   0  0  0  0  0  0  0  0  0  0  0  0
    2.6264  -10.2279    0.6955 C   0  0  0  0  0  0  0  0  0  0  0  0
    3.9022  -10.4476    0.2122 C   0  0  0  0  0  0  0  0  0  0  0  0
    4.4839   -9.5687   -0.5805 N   0  0  0  0  0  0  0  0  0  0  0  0
    3.7285   -0.9704   -5.1534 C   0  0  0  0  0  0  0  0  0  0  0  0
    3.1145   -0.7008   -6.3784 C   0  0  0  0  0  0  0  0  0  0  0  0
    3.6065    0.3046   -7.1907 C   0  0  0  0  0  0  0  0  0  0  0  0
    4.7126    1.0474   -6.7882 C   0  0  0  0  0  0  0  0  0  0  0  0
    5.3263    0.7807   -5.5677 C   0  0  0  0  0  0  0  0  0  0  0  0
    4.8349   -0.2201   -4.7494 C   0  0  0  0  0  0  0  0  0  0  0  0
    6.4072    1.5079   -5.1775 O   0  0  0  0  0  0  0  0  0  0  0  0
    6.9873    1.1805   -3.9133 C   0  0  0  0  0  0  0  0  0  0  0  0
    5.1947    2.0352   -7.5889 O   0  0  0  0  0  0  0  0  0  0  0  0
    4.6544    3.3447   -7.4007 C   0  0  0  0  0  0  0  0  0  0  0  0
    3.0093    0.5674   -8.3839 O   0  0  0  0  0  0  0  0  0  0  0  0
    1.8790   -0.2338   -8.7341 C   0  0  0  0  0  0  0  0  0  0  0  0
    1.1237   -0.7599   -4.0150 C   0  0  0  0  0  0  0  0  0  0  0  0
    1.5503    0.1107   -4.7485 O   0  0  0  0  0  0  0  0  0  0  0  0
   -0.1010   -0.6369   -3.4635 O   0  0  0  0  0  0  0  0  0  0  0  0
   -0.8416    0.5422   -3.7848 C   0  0  0  0  0  0  0  0  0  0  0  0
    1.5405    1.6060    0.5069 H   0  0  0  0  0  0  0  0  0  0  0  0
   -0.0214    1.8063   -0.3231 H   0  0  0  0  0  0  0  0  0  0  0  0
    0.0300    1.6373    1.4481 H   0  0  0  0  0  0  0  0  0  0  0  0
    0.3070   -0.1138   -1.7694 H   0  0  0  0  0  0  0  0  0  0  0  0
    0.0749   -3.9516    0.0998 H   0  0  0  0  0  0  0  0  0  0  0  0
    0.2292   -2.8274    2.2850 H   0  0  0  0  0  0  0  0  0  0  0  0
   -0.3879   -3.7449   -2.2603 H   0  0  0  0  0  0  0  0  0  0  0  0
   -0.5062   -2.1424   -3.0260 H   0  0  0  0  0  0  0  0  0  0  0  0
    5.7449   -2.6698   -5.1519 H   0  0  0  0  0  0  0  0  0  0  0  0
    6.9809   -4.7154   -4.5743 H   0  0  0  0  0  0  0  0  0  0  0  0
    4.8299   -7.9620   -2.7831 H   0  0  0  0  0  0  0  0  0  0  0  0
    5.5176   -7.1444   -1.3594 H   0  0  0  0  0  0  0  0  0  0  0  0
    2.1184   -7.2444   -0.7849 H   0  0  0  0  0  0  0  0  0  0  0  0
    0.9631   -8.8654    0.7042 H   0  0  0  0  0  0  0  0  0  0  0  0
    2.1537  -10.9533    1.3411 H   0  0  0  0  0  0  0  0  0  0  0  0
    4.4273  -11.3516    0.4834 H   0  0  0  0  0  0  0  0  0  0  0  0
    2.2564   -1.2771   -6.6913 H   0  0  0  0  0  0  0  0  0  0  0  0
    5.3087   -0.4237   -3.8005 H   0  0  0  0  0  0  0  0  0  0  0  0
    7.8390    1.8340   -3.7241 H   0  0  0  0  0  0  0  0  0  0  0  0
    6.2446    1.3148   -3.1269 H   0  0  0  0  0  0  0  0  0  0  0  0
    7.3210    0.1429   -3.9245 H   0  0  0  0  0  0  0  0  0  0  0  0
    5.1239    4.0355   -8.1009 H   0  0  0  0  0  0  0  0  0  0  0  0
    3.5791    3.3229   -7.5777 H   0  0  0  0  0  0  0  0  0  0  0  0
    4.8480    3.6744   -6.3800 H   0  0  0  0  0  0  0  0  0  0  0  0
    1.4993    0.0789   -9.7068 H   0  0  0  0  0  0  0  0  0  0  0  0
    2.1766   -1.2815   -8.7799 H   0  0  0  0  0  0  0  0  0  0  0  0
    1.0991   -0.1101   -7.9827 H   0  0  0  0  0  0  0  0  0  0  0  0
   -0.9995    0.5898   -4.8623 H   0  0  0  0  0  0  0  0  0  0  0  0
   -1.8059    0.5152   -3.2772 H   0  0  0  0  0  0  0  0  0  0  0  0
   -0.2846    1.4210   -3.4601 H   0  0  0  0  0  0  0  0  0  0  0  0
  1  2  1  0  0  0  0
  1 44  1  0  0  0  0
  1 45  1  0  0  0  0
  1 46  1  0  0  0  0
  2  7  2  0  0  0  0
  2  3  1  0  0  0  0
  3  4  2  0  0  0  0
  3 47  1  0  0  0  0
  4  5  1  0  0  0  0
  4  8  1  0  0  0  0
  5  6  2  0  0  0  0
  5 48  1  0  0  0  0
  6  7  1  0  0  0  0
  6 49  1  0  0  0  0
  8  9  1  0  0  0  0
  8 50  1  0  0  0  0
  8 51  1  0  0  0  0
  9 18  1  0  0  0  0
  9 10  1  0  0  0  0
 10 11  2  0  0  0  0
 10 40  1  0  0  0  0
 11 12  1  0  0  0  0
 11 28  1  0  0  0  0
 12 17  2  0  0  0  0
 12 13  1  0  0  0  0
 13 14  2  0  0  0  0
 13 52  1  0  0  0  0
 14 15  1  0  0  0  0
 14 53  1  0  0  0  0
 15 16  2  0  0  0  0
 16 17  1  0  0  0  0
 16 20  1  0  0  0  0
 17 18  1  0  0  0  0
 18 19  2  0  0  0  0
 20 21  1  0  0  0  0
 21 22  1  0  0  0  0
 21 54  1  0  0  0  0
 21 55  1  0  0  0  0
 22 27  2  0  0  0  0
 22 23  1  0  0  0  0
 23 24  2  0  0  0  0
 23 56  1  0  0  0  0
 24 25  1  0  0  0  0
 24 57  1  0  0  0  0
 25 26  2  0  0  0  0
 25 58  1  0  0  0  0
 26 27  1  0  0  0  0
 26 59  1  0  0  0  0
 28 33  2  0  0  0  0
 28 29  1  0  0  0  0
 29 30  2  0  0  0  0
 29 60  1  0  0  0  0
 30 31  1  0  0  0  0
 30 38  1  0  0  0  0
 31 32  2  0  0  0  0
 31 36  1  0  0  0  0
 32 33  1  0  0  0  0
 32 34  1  0  0  0  0
 33 61  1  0  0  0  0
 34 35  1  0  0  0  0
 35 62  1  0  0  0  0
 35 63  1  0  0  0  0
 35 64  1  0  0  0  0
 36 37  1  0  0  0  0
 37 65  1  0  0  0  0
 37 66  1  0  0  0  0
 37 67  1  0  0  0  0
 38 39  1  0  0  0  0
 39 68  1  0  0  0  0
 39 69  1  0  0  0  0
 39 70  1  0  0  0  0
 40 41  2  0  0  0  0
 40 42  1  0  0  0  0
 42 43  1  0  0  0  0
 43 71  1  0  0  0  0
 43 72  1  0  0  0  0
 43 73  1  0  0  0  0
M  END
$$$$
CHEMBL77795
  -OEChem-07121202283D

 74 78  0     0  0  0  0  0  0999 V2000
    0.4880    1.3225    0.5104 C   0  0  0  0  0  0  0  0  0  0  0  0
    0.3702   -0.1734    0.3710 C   0  0  0  0  0  0  0  0  0  0  0  0
    0.2878   -0.7378   -0.8881 C   0  0  0  0  0  0  0  0  0  0  0  0
    0.1797   -2.1148   -1.0053 C   0  0  0  0  0  0  0  0  0  0  0  0
    0.1585   -2.8762    0.1535 C   0  0  0  0  0  0  0  0  0  0  0  0
    0.2451   -2.2415    1.3779 C   0  0  0  0  0  0  0  0  0  0  0  0
    0.3523   -0.9291    1.4513 N   0  3  0  0  0  0  0  0  0  0  0  0
    0.0870   -2.7689   -2.3598 C   0  0  0  0  0  0  0  0  0  0  0  0
    1.4325   -2.9348   -2.9151 N   0  0  0  0  0  0  0  0  0  0  0  0
    1.9424   -1.9462   -3.7291 C   0  0  0  0  0  0  0  0  0  0  0  0
    3.2045   -2.0438   -4.2833 C   0  0  0  0  0  0  0  0  0  0  0  0
    4.0161   -3.2333   -3.9928 C   0  0  0  0  0  0  0  0  0  0  0  0
    5.2991   -3.4141   -4.5087 C   0  0  0  0  0  0  0  0  0  0  0  0
    5.9868   -4.5648   -4.1801 C   0  0  0  0  0  0  0  0  0  0  0  0
    5.4578   -5.4868   -3.3950 N   0  0  0  0  0  0  0  0  0  0  0  0
    4.2460   -5.3702   -2.8767 C   0  0  0  0  0  0  0  0  0  0  0  0
    3.4753   -4.2356   -3.1560 C   0  0  0  0  0  0  0  0  0  0  0  0
    2.1298   -4.0455   -2.6077 C   0  0  0  0  0  0  0  0  0  0  0  0
    1.6417   -4.8912   -1.8802 O   0  0  0  0  0  0  0  0  0  0  0  0
    3.7526   -6.3463   -2.0778 O   0  0  0  0  0  0  0  0  0  0  0  0
    4.5951   -7.4750   -1.8366 C   0  0  0  0  0  0  0  0  0  0  0  0
    3.8835   -8.4491   -0.9334 C   0  0  0  0  0  0  0  0  0  0  0  0
    2.6066   -8.1612   -0.4891 C   0  0  0  0  0  0  0  0  0  0  0  0
    1.9608   -9.0640    0.3414 C   0  0  0  0  0  0  0  0  0  0  0  0
    2.6264  -10.2279    0.6955 C   0  0  0  0  0  0  0  0  0  0  0  0
    3.9022  -10.4476    0.2122 C   0  0  0  0  0  0  0  0  0  0  0  0
    4.4839   -9.5687   -0.5805 N   0  0  0  0  0  0  0  0  0  0  0  0
    3.7285   -0.9704   -5.1534 C   0  0  0  0  0  0  0  0  0  0  0  0
    3.1145   -0.7008   -6.3784 C   0  0  0  0  0  0  0  0  0  0  0  0
    3.6065    0.3046   -7.1907 C   0  0  0  0  0  0  0  0  0  0  0  0
    4.7126    1.0474   -6.7882 C   0  0  0  0  0  0  0  0  0  0  0  0
    5.3263    0.7807   -5.5677 C   0  0  0  0  0  0  0  0  0  0  0  0
    4.8349   -0.2201   -4.7494 C   0  0  0  0  0  0  0  0  0  0  0  0
    6.4072    1.5079   -5.1775 O   0  0  0  0  0  0  0  0  0  0  0  0
    6.9873    1.1805   -3.9133 C   0  0  0  0  0  0  0  0  0  0  0  0
    5.1947    2.0352   -7.5889 O   0  0  0  0  0  0  0  0  0  0  0  0
    4.6544    3.3447   -7.4007 C   0  0  0  0  0  0  0  0  0  0  0  0
    3.0093    0.5674   -8.3839 O   0  0  0  0  0  0  0  0  0  0  0  0
    1.8790   -0.2338   -8.7341 C   0  0  0  0  0  0  0  0  0  0  0  0
    1.1237   -0.7599   -4.0150 C   0  0  0  0  0  0  0  0  0  0  0  0
    1.5503    0.1107   -4.7485 O   0  0  0  0  0  0  0  0  0  0  0  0
   -0.1010   -0.6369   -3.4635 O   0  0  0  0  0  0  0  0  0  0  0  0
   -0.8416    0.5422   -3.7848 C   0  0  0  0  0  0  0  0  0  0  0  0
    1.5405    1.6060    0.5069 H   0  0  0  0  0  0  0  0  0  0  0  0
   -0.0214    1.8063   -0.3231 H   0  0  0  0  0  0  0  0  0  0  0  0
    0.0300    1.6373    1.4481 H   0  0  0  0  0  0  0  0  0  0  0  0
    0.3070   -0.1138   -1.7694 H   0  0  0  0  0  0  0  0  0  0  0  0
    0.0749   -3.9516    0.0998 H   0  0  0  0  0  0  0  0  0  0  0  0
    0.2292   -2.8274    2.2850 H   0  0  0  0  0  0  0  0  0  0  0  0
   -0.3879   -3.7449   -2.2603 H   0  0  0  0  0  0  0  0  0  0  0  0
   -0.5062   -2.1424   -3.0260 H   0  0  0  0  0  0  0  0  0  0  0  0
    5.7449   -2.6698   -5.1519 H   0  0  0  0  0  0  0  0  0  0  0  0
    6.9809   -4.7154   -4.5743 H   0  0  0  0  0  0  0  0  0  0  0  0
    4.8299   -7.9620   -2.7831 H   0  0  0  0  0  0  0  0  0  0  0  0
    5.5176   -7.1444   -1.3594 H   0  0  0  0  0  0  0  0  0  0  0  0
    2.1184   -7.2444   -0.7849 H   0  0  0  0  0  0  0  0  0  0  0  0
    0.9631   -8.8654    0.7042 H   0  0  0  0  0  0  0  0  0  0  0  0
    2.1537  -10.9533    1.3411 H   0  0  0  0  0  0  0  0  0  0  0  0
    4.4273  -11.3516    0.4834 H   0  0  0  0  0  0  0  0  0  0  0  0
    2.2564   -1.2771   -6.6913 H   0  0  0  0  0  0  0  0  0  0  0  0
    5.3087   -0.4237   -3.8005 H   0  0  0  0  0  0  0  0  0  0  0  0
    6.2446    1.3148   -3.1269 H   0  0  0  0  0  0  0  0  0  0  0  0
    7.3210    0.1429   -3.9245 H   0  0  0  0  0  0  0  0  0  0  0  0
    7.8390    1.8340   -3.7241 H   0  0  0  0  0  0  0  0  0  0  0  0
    5.1239    4.0355   -8.1009 H   0  0  0  0  0  0  0  0  0  0  0  0
    3.5791    3.3229   -7.5777 H   0  0  0  0  0  0  0  0  0  0  0  0
    4.8480    3.6744   -6.3800 H   0  0  0  0  0  0  0  0  0  0  0  0
    2.1766   -1.2815   -8.7799 H   0  0  0  0  0  0  0  0  0  0  0  0
    1.0991   -0.1101   -7.9827 H   0  0  0  0  0  0  0  0  0  0  0  0
    1.4993    0.0789   -9.7068 H   0  0  0  0  0  0  0  0  0  0  0  0
   -0.2846    1.4210   -3.4601 H   0  0  0  0  0  0  0  0  0  0  0  0
   -0.9995    0.5898   -4.8623 H   0  0  0  0  0  0  0  0  0  0  0  0
   -1.8059    0.5152   -3.2772 H   0  0  0  0  0  0  0  0  0  0  0  0
    0.4156   -0.5084    2.3231 H   0  0  0  0  0  0  0  0  0  0  0  0
  1  2  1  0  0  0  0
  1 44  1  0  0  0  0
  1 45  1  0  0  0  0
  1 46  1  0  0  0  0
  2  7  2  0  0  0  0
  2  3  1  0  0  0  0
  3  4  2  0  0  0  0
  3 47  1  0  0  0  0
  4  5  1  0  0  0  0
  4  8  1  0  0  0  0
  5  6  2  0  0  0  0
  5 48  1  0  0  0  0
  6  7  1  0  0  0  0
  6 49  1  0  0  0  0
  7 74  1  0  0  0  0
  8  9  1  0  0  0  0
  8 50  1  0  0  0  0
  8 51  1  0  0  0  0
  9 18  1  0  0  0  0
  9 10  1  0  0  0  0
 10 11  2  0  0  0  0
 10 40  1  0  0  0  0
 11 12  1  0  0  0  0
 11 28  1  0  0  0  0
 12 17  2  0  0  0  0
 12 13  1  0  0  0  0
 13 14  2  0  0  0  0
 13 52  1  0  0  0  0
 14 15  1  0  0  0  0
 14 53  1  0  0  0  0
 15 16  2  0  0  0  0
 16 17  1  0  0  0  0
 16 20  1  0  0  0  0
 17 18  1  0  0  0  0
 18 19  2  0  0  0  0
 20 21  1  0  0  0  0
 21 22  1  0  0  0  0
 21 54  1  0  0  0  0
 21 55  1  0  0  0  0
 22 27  2  0  0  0  0
 22 23  1  0  0  0  0
 23 24  2  0  0  0  0
 23 56  1  0  0  0  0
 24 25  1  0  0  0  0
 24 57  1  0  0  0  0
 25 26  2  0  0  0  0
 25 58  1  0  0  0  0
 26 27  1  0  0  0  0
 26 59  1  0  0  0  0
 28 33  2  0  0  0  0
 28 29  1  0  0  0  0
 29 30  2  0  0  0  0
 29 60  1  0  0  0  0
 30 31  1  0  0  0  0
 30 38  1  0  0  0  0
 31 32  2  0  0  0  0
 31 36  1  0  0  0  0
 32 33  1  0  0  0  0
 32 34  1  0  0  0  0
 33 61  1  0  0  0  0
 34 35  1  0  0  0  0
 35 62  1  0  0  0  0
 35 63  1  0  0  0  0
 35 64  1  0  0  0  0
 36 37  1  0  0  0  0
 37 65  1  0  0  0  0
 37 66  1  0  0  0  0
 37 67  1  0  0  0  0
 38 39  1  0  0  0  0
 39 68  1  0  0  0  0
 39 69  1  0  0  0  0
 39 70  1  0  0  0  0
 40 41  2  0  0  0  0
 40 42  1  0  0  0  0
 42 43  1  0  0  0  0
 43 71  1  0  0  0  0
 43 72  1  0  0  0  0
 43 73  1  0  0  0  0
M  CHG  1   7   1
M  END
$$$$
CHEMBL1095455
  -OEChem-07121202283D

 55 58  0     0  0  0  0  0  0999 V2000
   -0.4183    0.4827    0.4357 C   0  0  0  0  0  0  0  0  0  0  0  0
    0.0151   -0.9738    0.2575 C   0  0  0  0  0  0  0  0  0  0  0  0
    0.7567   -1.1213   -1.0461 C   0  0  0  0  0  0  0  0  0  0  0  0
    0.1725   -1.4246   -2.2943 C   0  0  0  0  0  0  0  0  0  0  0  0
    1.2167   -1.4672   -3.2346 C   0  0  0  0  0  0  0  0  0  0  0  0
    0.9029   -1.7529   -4.5706 C   0  0  0  0  0  0  0  0  0  0  0  0
   -0.3660   -1.9713   -4.8937 N   0  0  0  0  0  0  0  0  0  0  0  0
   -1.3268   -1.9228   -3.9780 C   0  0  0  0  0  0  0  0  0  0  0  0
   -1.0802   -1.6579   -2.7088 N   0  0  0  0  0  0  0  0  0  0  0  0
   -2.6354   -2.1583   -4.3694 N   0  0  0  0  0  0  0  0  0  0  0  0
   -2.9571   -2.6157   -5.7318 C   0  0  0  0  0  0  0  0  0  0  0  0
   -3.6319   -3.9849   -5.6289 C   0  0  0  0  0  0  0  0  0  0  0  0
   -4.6662   -3.9753   -4.6035 N   0  0  0  0  0  0  0  0  0  0  0  0
   -4.7215   -3.1077   -3.5919 C   0  0  0  0  0  0  0  0  0  0  0  0
   -5.5875   -3.2497   -2.7548 O   0  0  0  0  0  0  0  0  0  0  0  0
   -3.7583   -1.9674   -3.4394 C   0  0  0  0  0  0  0  0  0  0  0  0
    1.8973   -1.8057   -5.5348 N   0  0  0  0  0  0  0  0  0  0  0  0
    1.5839   -2.1751   -6.8352 C   0  0  0  0  0  0  0  0  0  0  0  0
    0.2728   -2.0747   -7.3046 C   0  0  0  0  0  0  0  0  0  0  0  0
    0.0118   -2.4543   -8.6066 C   0  0  0  0  0  0  0  0  0  0  0  0
    1.0062   -2.8981   -9.3625 N   0  0  0  0  0  0  0  0  0  0  0  0
    2.2334   -2.9810   -8.8897 C   0  0  0  0  0  0  0  0  0  0  0  0
    2.5283   -2.6250   -7.6557 N   0  0  0  0  0  0  0  0  0  0  0  0
    2.3740   -1.1966   -2.5524 N   0  0  0  0  0  0  0  0  0  0  0  0
    2.0431   -0.9842   -1.2076 N   0  0  0  0  0  0  0  0  0  0  0  0
    3.7195   -1.1348   -3.1288 C   0  0  0  0  0  0  0  0  0  0  0  0
    3.9573    0.2557   -3.7210 C   0  0  0  0  0  0  0  0  0  0  0  0
    5.2697    0.3159   -4.2832 O   0  0  0  0  0  0  0  0  0  0  0  0
    5.5948    1.5794   -4.8662 C   0  0  0  0  0  0  0  0  0  0  0  0
    7.0149    1.5290   -5.4335 C   0  0  0  0  0  0  0  0  0  0  0  0
    7.0916    0.5309   -6.4107 F   0  0  0  0  0  0  0  0  0  0  0  0
    7.3332    2.7659   -6.0043 F   0  0  0  0  0  0  0  0  0  0  0  0
    7.9184    1.2441   -4.4040 F   0  0  0  0  0  0  0  0  0  0  0  0
    0.4621    1.1254    0.4438 H   0  0  0  0  0  0  0  0  0  0  0  0
   -1.0710    0.7710   -0.3883 H   0  0  0  0  0  0  0  0  0  0  0  0
   -0.9547    0.5894    1.3786 H   0  0  0  0  0  0  0  0  0  0  0  0
    0.6678   -1.2620    1.0815 H   0  0  0  0  0  0  0  0  0  0  0  0
   -0.8653   -1.6164    0.2494 H   0  0  0  0  0  0  0  0  0  0  0  0
   -3.6346   -1.9066   -6.2074 H   0  0  0  0  0  0  0  0  0  0  0  0
   -2.0416   -2.6999   -6.3173 H   0  0  0  0  0  0  0  0  0  0  0  0
   -4.0814   -4.2364   -6.5895 H   0  0  0  0  0  0  0  0  0  0  0  0
   -2.8832   -4.7357   -5.3764 H   0  0  0  0  0  0  0  0  0  0  0  0
   -5.3639   -4.6468   -4.6604 H   0  0  0  0  0  0  0  0  0  0  0  0
   -3.3842   -1.9406   -2.4160 H   0  0  0  0  0  0  0  0  0  0  0  0
   -4.2671   -1.0311   -3.6686 H   0  0  0  0  0  0  0  0  0  0  0  0
    2.8122   -1.5845   -5.3006 H   0  0  0  0  0  0  0  0  0  0  0  0
   -0.5176   -1.7097   -6.6654 H   0  0  0  0  0  0  0  0  0  0  0  0
   -0.9904   -2.3907   -9.0041 H   0  0  0  0  0  0  0  0  0  0  0  0
    3.0201   -3.3470   -9.5327 H   0  0  0  0  0  0  0  0  0  0  0  0
    4.4574   -1.3293   -2.3505 H   0  0  0  0  0  0  0  0  0  0  0  0
    3.8132   -1.8851   -3.9139 H   0  0  0  0  0  0  0  0  0  0  0  0
    3.2194    0.4502   -4.4993 H   0  0  0  0  0  0  0  0  0  0  0  0
    3.8635    1.0059   -2.9359 H   0  0  0  0  0  0  0  0  0  0  0  0
    4.8909    1.8013   -5.6683 H   0  0  0  0  0  0  0  0  0  0  0  0
    5.5351    2.3571   -4.1048 H   0  0  0  0  0  0  0  0  0  0  0  0
  1  2  1  0  0  0  0
  1 34  1  0  0  0  0
  1 35  1  0  0  0  0
  1 36  1  0  0  0  0
  2  3  1  0  0  0  0
  2 37  1  0  0  0  0
  2 38  1  0  0  0  0
  3 25  2  0  0  0  0
  3  4  1  0  0  0  0
  4  9  2  0  0  0  0
  4  5  1  0  0  0  0
  5  6  2  0  0  0  0
  5 24  1  0  0  0  0
  6  7  1  0  0  0  0
  6 17  1  0  0  0  0
  7  8  2  0  0  0  0
  8  9  1  0  0  0  0
  8 10  1  0  0  0  0
 10 16  1  0  0  0  0
 10 11  1  0  0  0  0
 11 12  1  0  0  0  0
 11 39  1  0  0  0  0
 11 40  1  0  0  0  0
 12 13  1  0  0  0  0
 12 41  1  0  0  0  0
 12 42  1  0  0  0  0
 13 14  1  0  0  0  0
 13 43  1  0  0  0  0
 14 15  2  0  0  0  0
 14 16  1  0  0  0  0
 16 44  1  0  0  0  0
 16 45  1  0  0  0  0
 17 18  1  0  0  0  0
 17 46  1  0  0  0  0
 18 23  2  0  0  0  0
 18 19  1  0  0  0  0
 19 20  2  0  0  0  0
 19 47  1  0  0  0  0
 20 21  1  0  0  0  0
 20 48  1  0  0  0  0
 21 22  2  0  0  0  0
 22 23  1  0  0  0  0
 22 49  1  0  0  0  0
 24 25  1  0  0  0  0
 24 26  1  0  0  0  0
 26 27  1  0  0  0  0
 26 50  1  0  0  0  0
 26 51  1  0  0  0  0
 27 28  1  0  0  0  0
 27 52  1  0  0  0  0
 27 53  1  0  0  0  0
 28 29  1  0  0  0  0
 29 30  1  0  0  0  0
 29 54  1  0  0  0  0
 29 55  1  0  0  0  0
 30 31  1  0  0  0  0
 30 32  1  0  0  0  0
 30 33  1  0  0  0  0
M  END
$$$$
CHEMBL160556
  -OEChem-07121202283D

 54 59  0     1  0  0  0  0  0999 V2000
   -0.0167    1.3792    0.0096 C   0  0  0  0  0  0  0  0  0  0  0  0
    1.1683    2.0931    0.0021 C   0  0  0  0  0  0  0  0  0  0  0  0
    2.3774    1.4286   -0.0134 C   0  0  0  0  0  0  0  0  0  0  0  0
    2.4032    0.0335   -0.0212 C   0  0  0  0  0  0  0  0  0  0  0  0
    1.2045   -0.6806   -0.0131 C   0  0  0  0  0  0  0  0  0  0  0  0
    0.0021   -0.0041    0.0020 C   0  0  0  0  0  0  0  0  0  0  0  0
    3.6950   -0.6848   -0.0384 C   0  0  0  0  0  0  0  0  0  0  0  0
    3.7162   -2.0103   -0.0457 C   0  0  0  0  0  0  0  0  0  0  0  0
    5.2560   -2.8666   -0.0662 S   0  0  0  0  0  0  0  0  0  0  0  0
    5.1650   -3.8414   -1.0961 O   0  0  0  0  0  0  0  0  0  0  0  0
    6.2729   -1.8742   -0.0443 O   0  0  0  0  0  0  0  0  0  0  0  0
    5.3738   -3.6965    1.3619 N   0  0  3  0  0  0  0  0  0  0  0  0
    5.9526   -3.2083    2.6179 C   0  0  0  0  0  0  0  0  0  0  0  0
    5.8327   -4.3175    3.6334 C   0  0  0  0  0  0  0  0  0  0  0  0
    6.2354   -4.3591    4.9914 C   0  0  0  0  0  0  0  0  0  0  0  0
    5.9857   -5.5958    5.7497 C   0  0  0  0  0  0  0  0  0  0  0  0
    6.3506   -5.7183    7.0901 C   0  0  0  0  0  0  0  0  0  0  0  0
    6.0990   -6.8855    7.7558 C   0  0  0  0  0  0  0  0  0  0  0  0
    5.4838   -7.9480    7.1080 C   0  0  0  0  0  0  0  0  0  0  0  0
    5.1160   -7.8475    5.7843 C   0  0  0  0  0  0  0  0  0  0  0  0
    5.3623   -6.6676    5.0872 C   0  0  0  0  0  0  0  0  0  0  0  0
    5.0078   -6.5325    3.7664 N   0  0  0  0  0  0  0  0  0  0  0  0
    5.2394   -5.3874    3.0661 C   0  0  0  0  0  0  0  0  0  0  0  0
    4.9145   -5.0637    1.6249 C   0  0  2  0  0  0  0  0  0  0  0  0
    5.6302   -6.0273    0.7137 C   0  0  0  0  0  0  0  0  0  0  0  0
    6.9773   -5.8587    0.4526 C   0  0  0  0  0  0  0  0  0  0  0  0
    7.6383   -6.7402   -0.3822 C   0  0  0  0  0  0  0  0  0  0  0  0
    6.9512   -7.7955   -0.9600 C   0  0  0  0  0  0  0  0  0  0  0  0
    5.5941   -7.9653   -0.6971 C   0  0  0  0  0  0  0  0  0  0  0  0
    4.9395   -7.0812    0.1452 C   0  0  0  0  0  0  0  0  0  0  0  0
    5.1522   -9.0636   -1.3766 O   0  0  0  0  0  0  0  0  0  0  0  0
    6.1532   -9.3244   -2.3782 C   0  0  0  0  0  0  0  0  0  0  0  0
    7.3595   -8.7874   -1.8042 O   0  0  0  0  0  0  0  0  0  0  0  0
    6.7736   -3.3984    5.5165 O   0  0  0  0  0  0  0  0  0  0  0  0
   -0.9604    1.9041    0.0260 H   0  0  0  0  0  0  0  0  0  0  0  0
    1.1469    3.1729    0.0082 H   0  0  0  0  0  0  0  0  0  0  0  0
    3.3018    1.9870   -0.0200 H   0  0  0  0  0  0  0  0  0  0  0  0
    1.2178   -1.7605   -0.0194 H   0  0  0  0  0  0  0  0  0  0  0  0
   -0.9265   -0.5556    0.0079 H   0  0  0  0  0  0  0  0  0  0  0  0
    4.6214   -0.1298   -0.0450 H   0  0  0  0  0  0  0  0  0  0  0  0
    2.7898   -2.5653   -0.0392 H   0  0  0  0  0  0  0  0  0  0  0  0
    7.0022   -2.9555    2.4681 H   0  0  0  0  0  0  0  0  0  0  0  0
    5.4045   -2.3310    2.9616 H   0  0  0  0  0  0  0  0  0  0  0  0
    6.8298   -4.8954    7.5995 H   0  0  0  0  0  0  0  0  0  0  0  0
    6.3814   -6.9819    8.7938 H   0  0  0  0  0  0  0  0  0  0  0  0
    5.2919   -8.8636    7.6475 H   0  0  0  0  0  0  0  0  0  0  0  0
    4.6380   -8.6800    5.2896 H   0  0  0  0  0  0  0  0  0  0  0  0
    3.8387   -5.1298    1.4628 H   0  0  0  0  0  0  0  0  0  0  0  0
    7.5144   -5.0362    0.9016 H   0  0  0  0  0  0  0  0  0  0  0  0
    8.6907   -6.6061   -0.5843 H   0  0  0  0  0  0  0  0  0  0  0  0
    3.8882   -7.2131    0.3544 H   0  0  0  0  0  0  0  0  0  0  0  0
    6.2543  -10.3962   -2.5487 H   0  0  0  0  0  0  0  0  0  0  0  0
    5.9088   -8.8092   -3.3072 H   0  0  0  0  0  0  0  0  0  0  0  0
    4.5782   -7.2776    3.3177 H   0  0  0  0  0  0  0  0  0  0  0  0
  1  6  2  0  0  0  0
  1  2  1  0  0  0  0
  1 35  1  0  0  0  0
  2  3  2  0  0  0  0
  2 36  1  0  0  0  0
  3  4  1  0  0  0  0
  3 37  1  0  0  0  0
  4  5  2  0  0  0  0
  4  7  1  0  0  0  0
  5  6  1  0  0  0  0
  5 38  1  0  0  0  0
  6 39  1  0  0  0  0
  7  8  2  0  0  0  0
  7 40  1  0  0  0  0
  8  9  1  0  0  0  0
  8 41  1  0  0  0  0
  9 10  2  0  0  0  0
  9 11  2  0  0  0  0
  9 12  1  0  0  0  0
 12 24  1  0  0  0  0
 12 13  1  0  0  0  0
 13 14  1  0  0  0  0
 13 42  1  0  0  0  0
 13 43  1  0  0  0  0
 14 23  2  0  0  0  0
 14 15  1  0  0  0  0
 15 16  1  0  0  0  0
 15 34  2  0  0  0  0
 16 21  2  0  0  0  0
 16 17  1  0  0  0  0
 17 18  2  0  0  0  0
 17 44  1  0  0  0  0
 18 19  1  0  0  0  0
 18 45  1  0  0  0  0
 19 20  2  0  0  0  0
 19 46  1  0  0  0  0
 20 21  1  0  0  0  0
 20 47  1  0  0  0  0
 21 22  1  0  0  0  0
 22 23  1  0  0  0  0
 22 54  1  0  0  0  0
 23 24  1  0  0  0  0
 24 25  1  0  0  0  0
 24 48  1  0  0  0  0
 25 30  2  0  0  0  0
 25 26  1  0  0  0  0
 26 27  2  0  0  0  0
 26 49  1  0  0  0  0
 27 28  1  0  0  0  0
 27 50  1  0  0  0  0
 28 33  1  0  0  0  0
 28 29  2  0  0  0  0
 29 30  1  0  0  0  0
 29 31  1  0  0  0  0
 30 51  1  0  0  0  0
 31 32  1  0  0  0  0
 32 33  1  0  0  0  0
 32 52  1  0  0  0  0
 32 53  1  0  0  0  0
M  END
$$$$
CHEMBL160556
  -OEChem-07121202283D

 53 58  0     1  0  0  0  0  0999 V2000
   -0.0167    1.3792    0.0096 C   0  0  0  0  0  0  0  0  0  0  0  0
    1.1683    2.0931    0.0021 C   0  0  0  0  0  0  0  0  0  0  0  0
    2.3774    1.4286   -0.0134 C   0  0  0  0  0  0  0  0  0  0  0  0
    2.4032    0.0335   -0.0212 C   0  0  0  0  0  0  0  0  0  0  0  0
    1.2045   -0.6806   -0.0131 C   0  0  0  0  0  0  0  0  0  0  0  0
    0.0021   -0.0041    0.0020 C   0  0  0  0  0  0  0  0  0  0  0  0
    3.6950   -0.6848   -0.0384 C   0  0  0  0  0  0  0  0  0  0  0  0
    3.7162   -2.0103   -0.0457 C   0  0  0  0  0  0  0  0  0  0  0  0
    5.2560   -2.8666   -0.0662 S   0  0  0  0  0  0  0  0  0  0  0  0
    5.1650   -3.8414   -1.0961 O   0  0  0  0  0  0  0  0  0  0  0  0
    6.2729   -1.8742   -0.0443 O   0  0  0  0  0  0  0  0  0  0  0  0
    5.3738   -3.6965    1.3619 N   0  0  3  0  0  0  0  0  0  0  0  0
    5.9544   -3.2001    2.6132 C   0  0  0  0  0  0  0  0  0  0  0  0
    5.8422   -4.2995    3.6378 C   0  0  0  0  0  0  0  0  0  0  0  0
    6.2333   -4.3484    4.9645 C   0  0  0  0  0  0  0  0  0  0  0  0
    5.9911   -5.5393    5.6847 C   0  0  0  0  0  0  0  0  0  0  0  0
    6.3572   -5.6667    7.0323 C   0  0  0  0  0  0  0  0  0  0  0  0
    6.1055   -6.8322    7.6910 C   0  0  0  0  0  0  0  0  0  0  0  0
    5.4886   -7.8994    7.0421 C   0  0  0  0  0  0  0  0  0  0  0  0
    5.1210   -7.8090    5.7348 C   0  0  0  0  0  0  0  0  0  0  0  0
    5.3639   -6.6217    5.0218 C   0  0  0  0  0  0  0  0  0  0  0  0
    5.0128   -6.5046    3.7383 N   0  0  0  0  0  0  0  0  0  0  0  0
    5.2315   -5.4011    3.0529 C   0  0  0  0  0  0  0  0  0  0  0  0
    4.9116   -5.0639    1.6157 C   0  0  2  0  0  0  0  0  0  0  0  0
    5.6263   -6.0226    0.6987 C   0  0  0  0  0  0  0  0  0  0  0  0
    6.9740   -5.8546    0.4400 C   0  0  0  0  0  0  0  0  0  0  0  0
    7.6342   -6.7317   -0.4002 C   0  0  0  0  0  0  0  0  0  0  0  0
    6.9458   -7.7818   -0.9857 C   0  0  0  0  0  0  0  0  0  0  0  0
    5.5882   -7.9510   -0.7252 C   0  0  0  0  0  0  0  0  0  0  0  0
    4.9344   -7.0714    0.1224 C   0  0  0  0  0  0  0  0  0  0  0  0
    5.1450   -9.0439   -1.4125 O   0  0  0  0  0  0  0  0  0  0  0  0
    6.1464   -9.2997   -2.4150 C   0  0  0  0  0  0  0  0  0  0  0  0
    7.3531   -8.7687   -1.8362 O   0  0  0  0  0  0  0  0  0  0  0  0
    6.8316   -3.2849    5.5553 O   0  5  0  0  0  0  0  0  0  0  0  0
   -0.9604    1.9041    0.0260 H   0  0  0  0  0  0  0  0  0  0  0  0
    1.1469    3.1729    0.0082 H   0  0  0  0  0  0  0  0  0  0  0  0
    3.3018    1.9870   -0.0200 H   0  0  0  0  0  0  0  0  0  0  0  0
    1.2178   -1.7605   -0.0194 H   0  0  0  0  0  0  0  0  0  0  0  0
   -0.9265   -0.5556    0.0079 H   0  0  0  0  0  0  0  0  0  0  0  0
    4.6214   -0.1298   -0.0450 H   0  0  0  0  0  0  0  0  0  0  0  0
    2.7898   -2.5653   -0.0392 H   0  0  0  0  0  0  0  0  0  0  0  0
    7.0027   -2.9449    2.4583 H   0  0  0  0  0  0  0  0  0  0  0  0
    5.4055   -2.3215    2.9522 H   0  0  0  0  0  0  0  0  0  0  0  0
    6.8364   -4.8457    7.5449 H   0  0  0  0  0  0  0  0  0  0  0  0
    6.3879   -6.9302    8.7288 H   0  0  0  0  0  0  0  0  0  0  0  0
    5.2993   -8.8136    7.5852 H   0  0  0  0  0  0  0  0  0  0  0  0
    4.6441   -8.6461    5.2469 H   0  0  0  0  0  0  0  0  0  0  0  0
    3.8360   -5.1266    1.4502 H   0  0  0  0  0  0  0  0  0  0  0  0
    7.5121   -5.0362    0.8950 H   0  0  0  0  0  0  0  0  0  0  0  0
    8.6870   -6.5981   -0.6005 H   0  0  0  0  0  0  0  0  0  0  0  0
    3.8826   -7.2029    0.3298 H   0  0  0  0  0  0  0  0  0  0  0  0
    6.2458  -10.3705   -2.5926 H   0  0  0  0  0  0  0  0  0  0  0  0
    5.9037   -8.7778   -3.3407 H   0  0  0  0  0  0  0  0  0  0  0  0
  1  6  2  0  0  0  0
  1  2  1  0  0  0  0
  1 35  1  0  0  0  0
  2  3  2  0  0  0  0
  2 36  1  0  0  0  0
  3  4  1  0  0  0  0
  3 37  1  0  0  0  0
  4  5  2  0  0  0  0
  4  7  1  0  0  0  0
  5  6  1  0  0  0  0
  5 38  1  0  0  0  0
  6 39  1  0  0  0  0
  7  8  2  0  0  0  0
  7 40  1  0  0  0  0
  8  9  1  0  0  0  0
  8 41  1  0  0  0  0
  9 10  2  0  0  0  0
  9 11  2  0  0  0  0
  9 12  1  0  0  0  0
 12 24  1  0  0  0  0
 12 13  1  0  0  0  0
 13 14  1  0  0  0  0
 13 42  1  0  0  0  0
 13 43  1  0  0  0  0
 14 23  2  0  0  0  0
 14 15  1  0  0  0  0
 15 16  2  0  0  0  0
 15 34  1  0  0  0  0
 16 21  1  0  0  0  0
 16 17  1  0  0  0  0
 17 18  2  0  0  0  0
 17 44  1  0  0  0  0
 18 19  1  0  0  0  0
 18 45  1  0  0  0  0
 19 20  2  0  0  0  0
 19 46  1  0  0  0  0
 20 21  1  0  0  0  0
 20 47  1  0  0  0  0
 21 22  2  0  0  0  0
 22 23  1  0  0  0  0
 23 24  1  0  0  0  0
 24 25  1  0  0  0  0
 24 48  1  0  0  0  0
 25 30  2  0  0  0  0
 25 26  1  0  0  0  0
 26 27  2  0  0  0  0
 26 49  1  0  0  0  0
 27 28  1  0  0  0  0
 27 50  1  0  0  0  0
 28 33  1  0  0  0  0
 28 29  2  0  0  0  0
 29 30  1  0  0  0  0
 29 31  1  0  0  0  0
 30 51  1  0  0  0  0
 31 32  1  0  0  0  0
 32 33  1  0  0  0  0
 32 52  1  0  0  0  0
 32 53  1  0  0  0  0
M  CHG  1  34  -1
M  END
$$$$
CHEMBL160556
  -OEChem-07121202283D

 54 59  0     1  0  0  0  0  0999 V2000
   -0.0167    1.3792    0.0096 C   0  0  0  0  0  0  0  0  0  0  0  0
    1.1683    2.0931    0.0021 C   0  0  0  0  0  0  0  0  0  0  0  0
    2.3774    1.4286   -0.0134 C   0  0  0  0  0  0  0  0  0  0  0  0
    2.4032    0.0335   -0.0212 C   0  0  0  0  0  0  0  0  0  0  0  0
    1.2045   -0.6806   -0.0131 C   0  0  0  0  0  0  0  0  0  0  0  0
    0.0021   -0.0041    0.0020 C   0  0  0  0  0  0  0  0  0  0  0  0
    3.6950   -0.6848   -0.0384 C   0  0  0  0  0  0  0  0  0  0  0  0
    3.7162   -2.0103   -0.0457 C   0  0  0  0  0  0  0  0  0  0  0  0
    5.2560   -2.8666   -0.0662 S   0  0  0  0  0  0  0  0  0  0  0  0
    5.1650   -3.8414   -1.0961 O   0  0  0  0  0  0  0  0  0  0  0  0
    6.2729   -1.8742   -0.0443 O   0  0  0  0  0  0  0  0  0  0  0  0
    5.3738   -3.6965    1.3619 N   0  0  3  0  0  0  0  0  0  0  0  0
    5.9526   -3.2083    2.6179 C   0  0  0  0  0  0  0  0  0  0  0  0
    5.8327   -4.3175    3.6334 C   0  0  0  0  0  0  0  0  0  0  0  0
    6.2354   -4.3591    4.9914 C   0  0  0  0  0  0  0  0  0  0  0  0
    5.9857   -5.5958    5.7497 C   0  0  0  0  0  0  0  0  0  0  0  0
    6.3506   -5.7183    7.0901 C   0  0  0  0  0  0  0  0  0  0  0  0
    6.0990   -6.8855    7.7558 C   0  0  0  0  0  0  0  0  0  0  0  0
    5.4838   -7.9480    7.1080 C   0  0  0  0  0  0  0  0  0  0  0  0
    5.1160   -7.8475    5.7843 C   0  0  0  0  0  0  0  0  0  0  0  0
    5.3623   -6.6676    5.0872 C   0  0  0  0  0  0  0  0  0  0  0  0
    5.0078   -6.5325    3.7664 N   0  0  0  0  0  0  0  0  0  0  0  0
    5.2394   -5.3874    3.0661 C   0  0  0  0  0  0  0  0  0  0  0  0
    4.9145   -5.0637    1.6249 C   0  0  1  0  0  0  0  0  0  0  0  0
    3.4271   -5.1551    1.4007 C   0  0  0  0  0  0  0  0  0  0  0  0
    2.6036   -4.1214    1.8067 C   0  0  0  0  0  0  0  0  0  0  0  0
    1.2386   -4.2004    1.6028 C   0  0  0  0  0  0  0  0  0  0  0  0
    0.6924   -5.3170    0.9909 C   0  0  0  0  0  0  0  0  0  0  0  0
    1.5220   -6.3582    0.5820 C   0  0  0  0  0  0  0  0  0  0  0  0
    2.8897   -6.2697    0.7844 C   0  0  0  0  0  0  0  0  0  0  0  0
    0.7523   -7.3316    0.0133 O   0  0  0  0  0  0  0  0  0  0  0  0
   -0.5938   -7.0589    0.4456 C   0  0  0  0  0  0  0  0  0  0  0  0
   -0.5970   -5.6379    0.6783 O   0  0  0  0  0  0  0  0  0  0  0  0
    6.7736   -3.3984    5.5165 O   0  0  0  0  0  0  0  0  0  0  0  0
   -0.9604    1.9041    0.0260 H   0  0  0  0  0  0  0  0  0  0  0  0
    1.1469    3.1729    0.0082 H   0  0  0  0  0  0  0  0  0  0  0  0
    3.3018    1.9870   -0.0200 H   0  0  0  0  0  0  0  0  0  0  0  0
    1.2178   -1.7605   -0.0194 H   0  0  0  0  0  0  0  0  0  0  0  0
   -0.9265   -0.5556    0.0079 H   0  0  0  0  0  0  0  0  0  0  0  0
    4.6214   -0.1298   -0.0450 H   0  0  0  0  0  0  0  0  0  0  0  0
    2.7898   -2.5653   -0.0392 H   0  0  0  0  0  0  0  0  0  0  0  0
    7.0022   -2.9555    2.4681 H   0  0  0  0  0  0  0  0  0  0  0  0
    5.4045   -2.3310    2.9616 H   0  0  0  0  0  0  0  0  0  0  0  0
    6.8298   -4.8954    7.5995 H   0  0  0  0  0  0  0  0  0  0  0  0
    6.3814   -6.9819    8.7938 H   0  0  0  0  0  0  0  0  0  0  0  0
    5.2919   -8.8636    7.6475 H   0  0  0  0  0  0  0  0  0  0  0  0
    4.6380   -8.6800    5.2896 H   0  0  0  0  0  0  0  0  0  0  0  0
    5.4322   -5.7606    0.9658 H   0  0  0  0  0  0  0  0  0  0  0  0
    3.0275   -3.2506    2.2845 H   0  0  0  0  0  0  0  0  0  0  0  0
    0.5977   -3.3915    1.9209 H   0  0  0  0  0  0  0  0  0  0  0  0
    3.5359   -7.0736    0.4643 H   0  0  0  0  0  0  0  0  0  0  0  0
   -1.3074   -7.3206   -0.3357 H   0  0  0  0  0  0  0  0  0  0  0  0
   -0.8172   -7.5982    1.3660 H   0  0  0  0  0  0  0  0  0  0  0  0
    4.5782   -7.2776    3.3177 H   0  0  0  0  0  0  0  0  0  0  0  0
  1  6  2  0  0  0  0
  1  2  1  0  0  0  0
  1 35  1  0  0  0  0
  2  3  2  0  0  0  0
  2 36  1  0  0  0  0
  3  4  1  0  0  0  0
  3 37  1  0  0  0  0
  4  5  2  0  0  0  0
  4  7  1  0  0  0  0
  5  6  1  0  0  0  0
  5 38  1  0  0  0  0
  6 39  1  0  0  0  0
  7  8  2  0  0  0  0
  7 40  1  0  0  0  0
  8  9  1  0  0  0  0
  8 41  1  0  0  0  0
  9 10  2  0  0  0  0
  9 11  2  0  0  0  0
  9 12  1  0  0  0  0
 12 24  1  0  0  0  0
 12 13  1  0  0  0  0
 13 14  1  0  0  0  0
 13 42  1  0  0  0  0
 13 43  1  0  0  0  0
 14 23  2  0  0  0  0
 14 15  1  0  0  0  0
 15 16  1  0  0  0  0
 15 34  2  0  0  0  0
 16 21  2  0  0  0  0
 16 17  1  0  0  0  0
 17 18  2  0  0  0  0
 17 44  1  0  0  0  0
 18 19  1  0  0  0  0
 18 45  1  0  0  0  0
 19 20  2  0  0  0  0
 19 46  1  0  0  0  0
 20 21  1  0  0  0  0
 20 47  1  0  0  0  0
 21 22  1  0  0  0  0
 22 23  1  0  0  0  0
 22 54  1  0  0  0  0
 23 24  1  0  0  0  0
 24 25  1  0  0  0  0
 24 48  1  0  0  0  0
 25 30  2  0  0  0  0
 25 26  1  0  0  0  0
 26 27  2  0  0  0  0
 26 49  1  0  0  0  0
 27 28  1  0  0  0  0
 27 50  1  0  0  0  0
 28 33  1  0  0  0  0
 28 29  2  0  0  0  0
 29 30  1  0  0  0  0
 29 31  1  0  0  0  0
 30 51  1  0  0  0  0
 31 32  1  0  0  0  0
 32 33  1  0  0  0  0
 32 52  1  0  0  0  0
 32 53  1  0  0  0  0
M  END
$$$$
CHEMBL160556
  -OEChem-07121202283D

 53 58  0     1  0  0  0  0  0999 V2000
   -0.0167    1.3792    0.0096 C   0  0  0  0  0  0  0  0  0  0  0  0
    1.1683    2.0931    0.0021 C   0  0  0  0  0  0  0  0  0  0  0  0
    2.3774    1.4286   -0.0134 C   0  0  0  0  0  0  0  0  0  0  0  0
    2.4032    0.0335   -0.0212 C   0  0  0  0  0  0  0  0  0  0  0  0
    1.2045   -0.6806   -0.0131 C   0  0  0  0  0  0  0  0  0  0  0  0
    0.0021   -0.0041    0.0020 C   0  0  0  0  0  0  0  0  0  0  0  0
    3.6950   -0.6848   -0.0384 C   0  0  0  0  0  0  0  0  0  0  0  0
    3.7162   -2.0103   -0.0457 C   0  0  0  0  0  0  0  0  0  0  0  0
    5.2560   -2.8666   -0.0662 S   0  0  0  0  0  0  0  0  0  0  0  0
    5.1650   -3.8414   -1.0961 O   0  0  0  0  0  0  0  0  0  0  0  0
    6.2729   -1.8742   -0.0443 O   0  0  0  0  0  0  0  0  0  0  0  0
    5.3738   -3.6965    1.3619 N   0  0  3  0  0  0  0  0  0  0  0  0
    5.9544   -3.2001    2.6132 C   0  0  0  0  0  0  0  0  0  0  0  0
    5.8422   -4.2995    3.6378 C   0  0  0  0  0  0  0  0  0  0  0  0
    6.2333   -4.3484    4.9645 C   0  0  0  0  0  0  0  0  0  0  0  0
    5.9911   -5.5393    5.6847 C   0  0  0  0  0  0  0  0  0  0  0  0
    6.3572   -5.6667    7.0323 C   0  0  0  0  0  0  0  0  0  0  0  0
    6.1055   -6.8322    7.6910 C   0  0  0  0  0  0  0  0  0  0  0  0
    5.4886   -7.8994    7.0421 C   0  0  0  0  0  0  0  0  0  0  0  0
    5.1210   -7.8090    5.7348 C   0  0  0  0  0  0  0  0  0  0  0  0
    5.3639   -6.6217    5.0218 C   0  0  0  0  0  0  0  0  0  0  0  0
    5.0128   -6.5046    3.7383 N   0  0  0  0  0  0  0  0  0  0  0  0
    5.2315   -5.4011    3.0529 C   0  0  0  0  0  0  0  0  0  0  0  0
    4.9116   -5.0639    1.6157 C   0  0  1  0  0  0  0  0  0  0  0  0
    3.4246   -5.1506    1.3869 C   0  0  0  0  0  0  0  0  0  0  0  0
    2.6023   -4.1175    1.7967 C   0  0  0  0  0  0  0  0  0  0  0  0
    1.2377   -4.1921    1.5886 C   0  0  0  0  0  0  0  0  0  0  0  0
    0.6906   -5.3038    0.9687 C   0  0  0  0  0  0  0  0  0  0  0  0
    1.5190   -6.3445    0.5560 C   0  0  0  0  0  0  0  0  0  0  0  0
    2.8863   -6.2603    0.7626 C   0  0  0  0  0  0  0  0  0  0  0  0
    0.7486   -7.3128   -0.0206 O   0  0  0  0  0  0  0  0  0  0  0  0
   -0.5980   -7.0396    0.4096 C   0  0  0  0  0  0  0  0  0  0  0  0
   -0.5986   -5.6200    0.6507 O   0  0  0  0  0  0  0  0  0  0  0  0
    6.8316   -3.2849    5.5553 O   0  5  0  0  0  0  0  0  0  0  0  0
   -0.9604    1.9041    0.0260 H   0  0  0  0  0  0  0  0  0  0  0  0
    1.1469    3.1729    0.0082 H   0  0  0  0  0  0  0  0  0  0  0  0
    3.3018    1.9870   -0.0200 H   0  0  0  0  0  0  0  0  0  0  0  0
    1.2178   -1.7605   -0.0194 H   0  0  0  0  0  0  0  0  0  0  0  0
   -0.9265   -0.5556    0.0079 H   0  0  0  0  0  0  0  0  0  0  0  0
    4.6214   -0.1298   -0.0450 H   0  0  0  0  0  0  0  0  0  0  0  0
    2.7898   -2.5653   -0.0392 H   0  0  0  0  0  0  0  0  0  0  0  0
    7.0027   -2.9449    2.4583 H   0  0  0  0  0  0  0  0  0  0  0  0
    5.4055   -2.3215    2.9522 H   0  0  0  0  0  0  0  0  0  0  0  0
    6.8364   -4.8457    7.5449 H   0  0  0  0  0  0  0  0  0  0  0  0
    6.3879   -6.9302    8.7288 H   0  0  0  0  0  0  0  0  0  0  0  0
    5.2993   -8.8136    7.5852 H   0  0  0  0  0  0  0  0  0  0  0  0
    4.6441   -8.6461    5.2469 H   0  0  0  0  0  0  0  0  0  0  0  0
    5.4286   -5.7573    0.9524 H   0  0  0  0  0  0  0  0  0  0  0  0
    3.0269   -3.2504    2.2808 H   0  0  0  0  0  0  0  0  0  0  0  0
    0.5977   -3.3836    1.9098 H   0  0  0  0  0  0  0  0  0  0  0  0
    3.5316   -7.0638    0.4395 H   0  0  0  0  0  0  0  0  0  0  0  0
   -1.3101   -7.2951   -0.3751 H   0  0  0  0  0  0  0  0  0  0  0  0
   -0.8251   -7.5838    1.3263 H   0  0  0  0  0  0  0  0  0  0  0  0
  1  6  2  0  0  0  0
  1  2  1  0  0  0  0
  1 35  1  0  0  0  0
  2  3  2  0  0  0  0
  2 36  1  0  0  0  0
  3  4  1  0  0  0  0
  3 37  1  0  0  0  0
  4  5  2  0  0  0  0
  4  7  1  0  0  0  0
  5  6  1  0  0  0  0
  5 38  1  0  0  0  0
  6 39  1  0  0  0  0
  7  8  2  0  0  0  0
  7 40  1  0  0  0  0
  8  9  1  0  0  0  0
  8 41  1  0  0  0  0
  9 10  2  0  0  0  0
  9 11  2  0  0  0  0
  9 12  1  0  0  0  0
 12 24  1  0  0  0  0
 12 13  1  0  0  0  0
 13 14  1  0  0  0  0
 13 42  1  0  0  0  0
 13 43  1  0  0  0  0
 14 23  2  0  0  0  0
 14 15  1  0  0  0  0
 15 16  2  0  0  0  0
 15 34  1  0  0  0  0
 16 21  1  0  0  0  0
 16 17  1  0  0  0  0
 17 18  2  0  0  0  0
 17 44  1  0  0  0  0
 18 19  1  0  0  0  0
 18 45  1  0  0  0  0
 19 20  2  0  0  0  0
 19 46  1  0  0  0  0
 20 21  1  0  0  0  0
 20 47  1  0  0  0  0
 21 22  2  0  0  0  0
 22 23  1  0  0  0  0
 23 24  1  0  0  0  0
 24 25  1  0  0  0  0
 24 48  1  0  0  0  0
 25 30  2  0  0  0  0
 25 26  1  0  0  0  0
 26 27  2  0  0  0  0
 26 49  1  0  0  0  0
 27 28  1  0  0  0  0
 27 50  1  0  0  0  0
 28 33  1  0  0  0  0
 28 29  2  0  0  0  0
 29 30  1  0  0  0  0
 29 31  1  0  0  0  0
 30 51  1  0  0  0  0
 31 32  1  0  0  0  0
 32 33  1  0  0  0  0
 32 52  1  0  0  0  0
 32 53  1  0  0  0  0
M  CHG  1  34  -1
M  END
$$$$
CHEMBL345179
  -OEChem-07121202283D

 55 60  0     1  0  0  0  0  0999 V2000
   -0.0167    1.3781    0.0096 C   0  0  0  0  0  0  0  0  0  0  0  0
    1.1709    2.0855    0.0021 C   0  0  0  0  0  0  0  0  0  0  0  0
    2.3773    1.4107   -0.0130 C   0  0  0  0  0  0  0  0  0  0  0  0
    2.3960    0.0285   -0.0201 C   0  0  0  0  0  0  0  0  0  0  0  0
    1.2084   -0.6789   -0.0117 C   0  0  0  0  0  0  0  0  0  0  0  0
    0.0021   -0.0041    0.0020 C   0  0  0  0  0  0  0  0  0  0  0  0
    3.7112   -0.7071   -0.0376 C   0  0  0  0  0  0  0  0  0  0  0  0
    4.1714   -0.9633    1.3989 C   0  0  0  0  0  0  0  0  0  0  0  0
    5.4865   -1.6989    1.3815 C   0  0  0  0  0  0  0  0  0  0  0  0
    6.0047   -1.9897    0.3242 O   0  0  0  0  0  0  0  0  0  0  0  0
    6.0868   -2.0337    2.5408 N   0  0  0  0  0  0  0  0  0  0  0  0
    5.5948   -1.7647    3.8959 C   0  0  0  0  0  0  0  0  0  0  0  0
    6.6052   -2.3270    4.8648 C   0  0  0  0  0  0  0  0  0  0  0  0
    6.6064   -2.3319    6.2818 C   0  0  0  0  0  0  0  0  0  0  0  0
    7.7433   -2.9642    6.9707 C   0  0  0  0  0  0  0  0  0  0  0  0
    7.8206   -3.0119    8.3623 C   0  0  0  0  0  0  0  0  0  0  0  0
    8.8949   -3.6097    8.9601 C   0  0  0  0  0  0  0  0  0  0  0  0
    9.9078   -4.1686    8.1929 C   0  0  0  0  0  0  0  0  0  0  0  0
    9.8507   -4.1315    6.8171 C   0  0  0  0  0  0  0  0  0  0  0  0
    8.7653   -3.5281    6.1874 C   0  0  0  0  0  0  0  0  0  0  0  0
    8.6756   -3.4741    4.8171 N   0  0  0  0  0  0  0  0  0  0  0  0
    7.6228   -2.8889    4.1812 C   0  0  0  0  0  0  0  0  0  0  0  0
    7.3589   -2.7451    2.6989 C   0  0  2  0  0  0  0  0  0  0  0  0
    8.4701   -1.9533    2.0591 C   0  0  0  0  0  0  0  0  0  0  0  0
    8.5015   -0.5775    2.1916 C   0  0  0  0  0  0  0  0  0  0  0  0
    9.5190    0.1531    1.6069 C   0  0  0  0  0  0  0  0  0  0  0  0
   10.5103   -0.4926    0.8859 C   0  0  0  0  0  0  0  0  0  0  0  0
   10.4787   -1.8785    0.7524 C   0  0  0  0  0  0  0  0  0  0  0  0
    9.4590   -2.6048    1.3459 C   0  0  0  0  0  0  0  0  0  0  0  0
   11.5523   -2.2695    0.0057 O   0  0  0  0  0  0  0  0  0  0  0  0
   12.0131   -1.0779   -0.6584 C   0  0  0  0  0  0  0  0  0  0  0  0
   11.6038   -0.0153    0.2228 O   0  0  0  0  0  0  0  0  0  0  0  0
    5.6922   -1.8266    6.9123 O   0  0  0  0  0  0  0  0  0  0  0  0
   -0.9591    1.9053    0.0259 H   0  0  0  0  0  0  0  0  0  0  0  0
    1.1563    3.1654    0.0076 H   0  0  0  0  0  0  0  0  0  0  0  0
    3.3051    1.9634   -0.0196 H   0  0  0  0  0  0  0  0  0  0  0  0
    1.2231   -1.7588   -0.0176 H   0  0  0  0  0  0  0  0  0  0  0  0
   -0.9258   -0.5567    0.0082 H   0  0  0  0  0  0  0  0  0  0  0  0
    3.5884   -1.6586   -0.5549 H   0  0  0  0  0  0  0  0  0  0  0  0
    4.4573   -0.1052   -0.5563 H   0  0  0  0  0  0  0  0  0  0  0  0
    4.2941   -0.0118    1.9163 H   0  0  0  0  0  0  0  0  0  0  0  0
    3.4252   -1.5652    1.9176 H   0  0  0  0  0  0  0  0  0  0  0  0
    5.4955   -0.6898    4.0470 H   0  0  0  0  0  0  0  0  0  0  0  0
    4.6305   -2.2512    4.0429 H   0  0  0  0  0  0  0  0  0  0  0  0
    7.0359   -2.5786    8.9647 H   0  0  0  0  0  0  0  0  0  0  0  0
    8.9562   -3.6471   10.0377 H   0  0  0  0  0  0  0  0  0  0  0  0
   10.7501   -4.6373    8.6800 H   0  0  0  0  0  0  0  0  0  0  0  0
   10.6440   -4.5693    6.2294 H   0  0  0  0  0  0  0  0  0  0  0  0
    7.2916   -3.7298    2.2364 H   0  0  0  0  0  0  0  0  0  0  0  0
    7.7292   -0.0725    2.7527 H   0  0  0  0  0  0  0  0  0  0  0  0
    9.5410    1.2277    1.7120 H   0  0  0  0  0  0  0  0  0  0  0  0
    9.4344   -3.6801    1.2479 H   0  0  0  0  0  0  0  0  0  0  0  0
   13.0980   -1.0926   -0.7625 H   0  0  0  0  0  0  0  0  0  0  0  0
   11.5353   -0.9731   -1.6325 H   0  0  0  0  0  0  0  0  0  0  0  0
    9.3857   -3.8659    4.2850 H   0  0  0  0  0  0  0  0  0  0  0  0
  1  6  2  0  0  0  0
  1  2  1  0  0  0  0
  1 34  1  0  0  0  0
  2  3  2  0  0  0  0
  2 35  1  0  0  0  0
  3  4  1  0  0  0  0
  3 36  1  0  0  0  0
  4  5  2  0  0  0  0
  4  7  1  0  0  0  0
  5  6  1  0  0  0  0
  5 37  1  0  0  0  0
  6 38  1  0  0  0  0
  7  8  1  0  0  0  0
  7 39  1  0  0  0  0
  7 40  1  0  0  0  0
  8  9  1  0  0  0  0
  8 41  1  0  0  0  0
  8 42  1  0  0  0  0
  9 10  2  0  0  0  0
  9 11  1  0  0  0  0
 11 23  1  0  0  0  0
 11 12  1  0  0  0  0
 12 13  1  0  0  0  0
 12 43  1  0  0  0  0
 12 44  1  0  0  0  0
 13 22  2  0  0  0  0
 13 14  1  0  0  0  0
 14 15  1  0  0  0  0
 14 33  2  0  0  0  0
 15 20  2  0  0  0  0
 15 16  1  0  0  0  0
 16 17  2  0  0  0  0
 16 45  1  0  0  0  0
 17 18  1  0  0  0  0
 17 46  1  0  0  0  0
 18 19  2  0  0  0  0
 18 47  1  0  0  0  0
 19 20  1  0  0  0  0
 19 48  1  0  0  0  0
 20 21  1  0  0  0  0
 21 22  1  0  0  0  0
 21 55  1  0  0  0  0
 22 23  1  0  0  0  0
 23 24  1  0  0  0  0
 23 49  1  0  0  0  0
 24 29  2  0  0  0  0
 24 25  1  0  0  0  0
 25 26  2  0  0  0  0
 25 50  1  0  0  0  0
 26 27  1  0  0  0  0
 26 51  1  0  0  0  0
 27 32  1  0  0  0  0
 27 28  2  0  0  0  0
 28 29  1  0  0  0  0
 28 30  1  0  0  0  0
 29 52  1  0  0  0  0
 30 31  1  0  0  0  0
 31 32  1  0  0  0  0
 31 53  1  0  0  0  0
 31 54  1  0  0  0  0
M  END
$$$$
CHEMBL345179
  -OEChem-07121202283D

 55 60  0     1  0  0  0  0  0999 V2000
   -0.0167    1.3781    0.0096 C   0  0  0  0  0  0  0  0  0  0  0  0
    1.1709    2.0855    0.0021 C   0  0  0  0  0  0  0  0  0  0  0  0
    2.3773    1.4107   -0.0130 C   0  0  0  0  0  0  0  0  0  0  0  0
    2.3960    0.0285   -0.0201 C   0  0  0  0  0  0  0  0  0  0  0  0
    1.2084   -0.6789   -0.0117 C   0  0  0  0  0  0  0  0  0  0  0  0
    0.0021   -0.0041    0.0020 C   0  0  0  0  0  0  0  0  0  0  0  0
    3.7112   -0.7071   -0.0376 C   0  0  0  0  0  0  0  0  0  0  0  0
    4.1714   -0.9633    1.3989 C   0  0  0  0  0  0  0  0  0  0  0  0
    5.4865   -1.6989    1.3815 C   0  0  0  0  0  0  0  0  0  0  0  0
    6.0047   -1.9897    0.3242 O   0  0  0  0  0  0  0  0  0  0  0  0
    6.0868   -2.0337    2.5408 N   0  0  0  0  0  0  0  0  0  0  0  0
    5.5948   -1.7647    3.8959 C   0  0  0  0  0  0  0  0  0  0  0  0
    6.6052   -2.3270    4.8648 C   0  0  0  0  0  0  0  0  0  0  0  0
    6.6064   -2.3319    6.2818 C   0  0  0  0  0  0  0  0  0  0  0  0
    7.7433   -2.9642    6.9707 C   0  0  0  0  0  0  0  0  0  0  0  0
    7.8206   -3.0119    8.3623 C   0  0  0  0  0  0  0  0  0  0  0  0
    8.8949   -3.6097    8.9601 C   0  0  0  0  0  0  0  0  0  0  0  0
    9.9078   -4.1686    8.1929 C   0  0  0  0  0  0  0  0  0  0  0  0
    9.8507   -4.1315    6.8171 C   0  0  0  0  0  0  0  0  0  0  0  0
    8.7653   -3.5281    6.1874 C   0  0  0  0  0  0  0  0  0  0  0  0
    8.6756   -3.4741    4.8171 N   0  0  0  0  0  0  0  0  0  0  0  0
    7.6228   -2.8889    4.1812 C   0  0  0  0  0  0  0  0  0  0  0  0
    7.3589   -2.7451    2.6989 C   0  0  1  0  0  0  0  0  0  0  0  0
    7.2659   -4.1065    2.0594 C   0  0  0  0  0  0  0  0  0  0  0  0
    6.1059   -4.8486    2.1825 C   0  0  0  0  0  0  0  0  0  0  0  0
    6.0156   -6.0977    1.5973 C   0  0  0  0  0  0  0  0  0  0  0  0
    7.0887   -6.6093    0.8858 C   0  0  0  0  0  0  0  0  0  0  0  0
    8.2572   -5.8618    0.7618 C   0  0  0  0  0  0  0  0  0  0  0  0
    8.3385   -4.6082    1.3462 C   0  0  0  0  0  0  0  0  0  0  0  0
    9.1559   -6.5762    0.0235 O   0  0  0  0  0  0  0  0  0  0  0  0
    8.6766   -7.9338    0.0429 C   0  0  0  0  0  0  0  0  0  0  0  0
    7.2553   -7.7920    0.2250 O   0  0  0  0  0  0  0  0  0  0  0  0
    5.6922   -1.8266    6.9123 O   0  0  0  0  0  0  0  0  0  0  0  0
   -0.9591    1.9053    0.0259 H   0  0  0  0  0  0  0  0  0  0  0  0
    1.1563    3.1654    0.0076 H   0  0  0  0  0  0  0  0  0  0  0  0
    3.3051    1.9634   -0.0196 H   0  0  0  0  0  0  0  0  0  0  0  0
    1.2231   -1.7588   -0.0176 H   0  0  0  0  0  0  0  0  0  0  0  0
   -0.9258   -0.5567    0.0082 H   0  0  0  0  0  0  0  0  0  0  0  0
    3.5884   -1.6586   -0.5549 H   0  0  0  0  0  0  0  0  0  0  0  0
    4.4573   -0.1052   -0.5563 H   0  0  0  0  0  0  0  0  0  0  0  0
    4.2941   -0.0118    1.9163 H   0  0  0  0  0  0  0  0  0  0  0  0
    3.4252   -1.5652    1.9176 H   0  0  0  0  0  0  0  0  0  0  0  0
    5.4955   -0.6898    4.0470 H   0  0  0  0  0  0  0  0  0  0  0  0
    4.6305   -2.2512    4.0429 H   0  0  0  0  0  0  0  0  0  0  0  0
    7.0359   -2.5786    8.9647 H   0  0  0  0  0  0  0  0  0  0  0  0
    8.9562   -3.6471   10.0377 H   0  0  0  0  0  0  0  0  0  0  0  0
   10.7501   -4.6373    8.6800 H   0  0  0  0  0  0  0  0  0  0  0  0
   10.6440   -4.5693    6.2294 H   0  0  0  0  0  0  0  0  0  0  0  0
    8.1626   -2.1724    2.2362 H   0  0  0  0  0  0  0  0  0  0  0  0
    5.2687   -4.4518    2.7374 H   0  0  0  0  0  0  0  0  0  0  0  0
    5.1083   -6.6753    1.6950 H   0  0  0  0  0  0  0  0  0  0  0  0
    9.2418   -4.0244    1.2479 H   0  0  0  0  0  0  0  0  0  0  0  0
    8.8939   -8.4303   -0.9028 H   0  0  0  0  0  0  0  0  0  0  0  0
    9.1164   -8.4834    0.8751 H   0  0  0  0  0  0  0  0  0  0  0  0
    9.3857   -3.8659    4.2850 H   0  0  0  0  0  0  0  0  0  0  0  0
  1  6  2  0  0  0  0
  1  2  1  0  0  0  0
  1 34  1  0  0  0  0
  2  3  2  0  0  0  0
  2 35  1  0  0  0  0
  3  4  1  0  0  0  0
  3 36  1  0  0  0  0
  4  5  2  0  0  0  0
  4  7  1  0  0  0  0
  5  6  1  0  0  0  0
  5 37  1  0  0  0  0
  6 38  1  0  0  0  0
  7  8  1  0  0  0  0
  7 39  1  0  0  0  0
  7 40  1  0  0  0  0
  8  9  1  0  0  0  0
  8 41  1  0  0  0  0
  8 42  1  0  0  0  0
  9 10  2  0  0  0  0
  9 11  1  0  0  0  0
 11 23  1  0  0  0  0
 11 12  1  0  0  0  0
 12 13  1  0  0  0  0
 12 43  1  0  0  0  0
 12 44  1  0  0  0  0
 13 22  2  0  0  0  0
 13 14  1  0  0  0  0
 14 15  1  0  0  0  0
 14 33  2  0  0  0  0
 15 20  2  0  0  0  0
 15 16  1  0  0  0  0
 16 17  2  0  0  0  0
 16 45  1  0  0  0  0
 17 18  1  0  0  0  0
 17 46  1  0  0  0  0
 18 19  2  0  0  0  0
 18 47  1  0  0  0  0
 19 20  1  0  0  0  0
 19 48  1  0  0  0  0
 20 21  1  0  0  0  0
 21 22  1  0  0  0  0
 21 55  1  0  0  0  0
 22 23  1  0  0  0  0
 23 24  1  0  0  0  0
 23 49  1  0  0  0  0
 24 29  2  0  0  0  0
 24 25  1  0  0  0  0
 25 26  2  0  0  0  0
 25 50  1  0  0  0  0
 26 27  1  0  0  0  0
 26 51  1  0  0  0  0
 27 32  1  0  0  0  0
 27 28  2  0  0  0  0
 28 29  1  0  0  0  0
 28 30  1  0  0  0  0
 29 52  1  0  0  0  0
 30 31  1  0  0  0  0
 31 32  1  0  0  0  0
 31 53  1  0  0  0  0
 31 54  1  0  0  0  0
M  END
$$$$
CHEMBL539357
  -OEChem-07121202283D

 76 80  0     0  0  0  0  0  0999 V2000
   -3.2484   -6.2536   -3.3065 C   0  0  0  0  0  0  0  0  0  0  0  0
   -2.5369   -4.9742   -3.6645 C   0  0  0  0  0  0  0  0  0  0  0  0
   -1.5699   -4.4697   -2.8154 C   0  0  0  0  0  0  0  0  0  0  0  0
   -0.9214   -3.2922   -3.1540 C   0  0  0  0  0  0  0  0  0  0  0  0
   -1.2713   -2.6633   -4.3394 C   0  0  0  0  0  0  0  0  0  0  0  0
   -2.2478   -3.2273   -5.1380 C   0  0  0  0  0  0  0  0  0  0  0  0
   -2.8402   -4.3520   -4.7867 N   0  0  0  0  0  0  0  0  0  0  0  0
    0.1383   -2.7091   -2.2551 C   0  0  0  0  0  0  0  0  0  0  0  0
    1.4623   -3.1102   -2.7370 N   0  0  0  0  0  0  0  0  0  0  0  0
    2.1373   -2.2752   -3.6031 C   0  0  0  0  0  0  0  0  0  0  0  0
    3.3893   -2.6006   -4.0910 C   0  0  0  0  0  0  0  0  0  0  0  0
    4.0113   -3.8645   -3.6749 C   0  0  0  0  0  0  0  0  0  0  0  0
    5.2766   -4.2499   -4.1335 C   0  0  0  0  0  0  0  0  0  0  0  0
    5.7849   -5.4438   -3.6967 C   0  0  0  0  0  0  0  0  0  0  0  0
    5.0388   -6.2330   -2.8187 C   0  0  0  0  0  0  0  0  0  0  0  0
    3.8473   -5.8548   -2.3960 N   0  0  0  0  0  0  0  0  0  0  0  0
    3.3098   -4.7068   -2.7894 C   0  0  0  0  0  0  0  0  0  0  0  0
    1.9812   -4.2782   -2.3155 C   0  0  0  0  0  0  0  0  0  0  0  0
    1.3525   -4.9819   -1.5467 O   0  0  0  0  0  0  0  0  0  0  0  0
    5.5496   -7.4140   -2.3916 O   0  0  0  0  0  0  0  0  0  0  0  0
    4.7453   -8.1822   -1.4945 C   0  0  0  0  0  0  0  0  0  0  0  0
    5.4819   -9.4715   -1.1257 C   0  0  0  0  0  0  0  0  0  0  0  0
    4.6337  -10.2817   -0.1796 C   0  0  0  0  0  0  0  0  0  0  0  0
    4.3260  -11.5930   -0.4903 C   0  0  0  0  0  0  0  0  0  0  0  0
    3.5450  -12.3296    0.3869 C   0  0  0  0  0  0  0  0  0  0  0  0
    3.1008  -11.7169    1.5489 C   0  0  0  0  0  0  0  0  0  0  0  0
    3.4488  -10.4020    1.7923 C   0  0  0  0  0  0  0  0  0  0  0  0
    4.1982   -9.7332    0.9376 N   0  0  0  0  0  0  0  0  0  0  0  0
    4.0918   -1.6896   -5.0187 C   0  0  0  0  0  0  0  0  0  0  0  0
    3.5632   -1.4387   -6.2867 C   0  0  0  0  0  0  0  0  0  0  0  0
    4.2225   -0.5858   -7.1531 C   0  0  0  0  0  0  0  0  0  0  0  0
    5.4120    0.0222   -6.7621 C   0  0  0  0  0  0  0  0  0  0  0  0
    5.9408   -0.2263   -5.4989 C   0  0  0  0  0  0  0  0  0  0  0  0
    5.2823   -1.0739   -4.6267 C   0  0  0  0  0  0  0  0  0  0  0  0
    7.1035    0.3690   -5.1200 O   0  0  0  0  0  0  0  0  0  0  0  0
    7.5888    0.0691   -3.8098 C   0  0  0  0  0  0  0  0  0  0  0  0
    6.0586    0.8601   -7.6160 O   0  0  0  0  0  0  0  0  0  0  0  0
    5.7098    2.2445   -7.5549 C   0  0  0  0  0  0  0  0  0  0  0  0
    3.7085   -0.3413   -8.3882 O   0  0  0  0  0  0  0  0  0  0  0  0
    2.4851   -0.9992   -8.7236 C   0  0  0  0  0  0  0  0  0  0  0  0
    1.5124   -1.0141   -4.0161 C   0  0  0  0  0  0  0  0  0  0  0  0
    2.1095   -0.2521   -4.7521 O   0  0  0  0  0  0  0  0  0  0  0  0
    0.2753   -0.6995   -3.5795 O   0  0  0  0  0  0  0  0  0  0  0  0
   -0.2718    0.5445   -4.0214 C   0  0  0  0  0  0  0  0  0  0  0  0
   -2.6984   -7.1016   -3.7144 H   0  0  0  0  0  0  0  0  0  0  0  0
   -3.3064   -6.3458   -2.2219 H   0  0  0  0  0  0  0  0  0  0  0  0
   -4.2551   -6.2386   -3.7242 H   0  0  0  0  0  0  0  0  0  0  0  0
   -1.3230   -4.9860   -1.8995 H   0  0  0  0  0  0  0  0  0  0  0  0
   -0.7869   -1.7443   -4.6345 H   0  0  0  0  0  0  0  0  0  0  0  0
   -2.5260   -2.7437   -6.0628 H   0  0  0  0  0  0  0  0  0  0  0  0
    0.0630   -1.6217   -2.2625 H   0  0  0  0  0  0  0  0  0  0  0  0
   -0.0051   -3.0763   -1.2388 H   0  0  0  0  0  0  0  0  0  0  0  0
    5.8357   -3.6235   -4.8128 H   0  0  0  0  0  0  0  0  0  0  0  0
    6.7579   -5.7738   -4.0297 H   0  0  0  0  0  0  0  0  0  0  0  0
    4.5532   -7.6026   -0.5916 H   0  0  0  0  0  0  0  0  0  0  0  0
    3.7990   -8.4294   -1.9757 H   0  0  0  0  0  0  0  0  0  0  0  0
    5.6740  -10.0512   -2.0286 H   0  0  0  0  0  0  0  0  0  0  0  0
    6.4282   -9.2244   -0.6445 H   0  0  0  0  0  0  0  0  0  0  0  0
    4.6890  -12.0379   -1.4049 H   0  0  0  0  0  0  0  0  0  0  0  0
    3.2884  -13.3560    0.1701 H   0  0  0  0  0  0  0  0  0  0  0  0
    2.4902  -12.2606    2.2546 H   0  0  0  0  0  0  0  0  0  0  0  0
    3.1069   -9.9177    2.6950 H   0  0  0  0  0  0  0  0  0  0  0  0
    2.6405   -1.9105   -6.5907 H   0  0  0  0  0  0  0  0  0  0  0  0
    5.6906   -1.2626   -3.6449 H   0  0  0  0  0  0  0  0  0  0  0  0
    8.5204    0.6076   -3.6354 H   0  0  0  0  0  0  0  0  0  0  0  0
    6.8490    0.3739   -3.0697 H   0  0  0  0  0  0  0  0  0  0  0  0
    7.7674   -1.0028   -3.7250 H   0  0  0  0  0  0  0  0  0  0  0  0
    6.2974    2.7998   -8.2859 H   0  0  0  0  0  0  0  0  0  0  0  0
    4.6491    2.3620   -7.7765 H   0  0  0  0  0  0  0  0  0  0  0  0
    5.9169    2.6276   -6.5557 H   0  0  0  0  0  0  0  0  0  0  0  0
    2.1864   -0.7181   -9.7334 H   0  0  0  0  0  0  0  0  0  0  0  0
    2.6275   -2.0787   -8.6740 H   0  0  0  0  0  0  0  0  0  0  0  0
    1.7081   -0.7025   -8.0190 H   0  0  0  0  0  0  0  0  0  0  0  0
    0.3711    1.3612   -3.6932 H   0  0  0  0  0  0  0  0  0  0  0  0
   -0.3358    0.5472   -5.1095 H   0  0  0  0  0  0  0  0  0  0  0  0
   -1.2681    0.6739   -3.5985 H   0  0  0  0  0  0  0  0  0  0  0  0
  1  2  1  0  0  0  0
  1 45  1  0  0  0  0
  1 46  1  0  0  0  0
  1 47  1  0  0  0  0
  2  7  2  0  0  0  0
  2  3  1  0  0  0  0
  3  4  2  0  0  0  0
  3 48  1  0  0  0  0
  4  5  1  0  0  0  0
  4  8  1  0  0  0  0
  5  6  2  0  0  0  0
  5 49  1  0  0  0  0
  6  7  1  0  0  0  0
  6 50  1  0  0  0  0
  8  9  1  0  0  0  0
  8 51  1  0  0  0  0
  8 52  1  0  0  0  0
  9 18  1  0  0  0  0
  9 10  1  0  0  0  0
 10 11  2  0  0  0  0
 10 41  1  0  0  0  0
 11 12  1  0  0  0  0
 11 29  1  0  0  0  0
 12 17  2  0  0  0  0
 12 13  1  0  0  0  0
 13 14  2  0  0  0  0
 13 53  1  0  0  0  0
 14 15  1  0  0  0  0
 14 54  1  0  0  0  0
 15 16  2  0  0  0  0
 15 20  1  0  0  0  0
 16 17  1  0  0  0  0
 17 18  1  0  0  0  0
 18 19  2  0  0  0  0
 20 21  1  0  0  0  0
 21 22  1  0  0  0  0
 21 55  1  0  0  0  0
 21 56  1  0  0  0  0
 22 23  1  0  0  0  0
 22 57  1  0  0  0  0
 22 58  1  0  0  0  0
 23 28  2  0  0  0  0
 23 24  1  0  0  0  0
 24 25  2  0  0  0  0
 24 59  1  0  0  0  0
 25 26  1  0  0  0  0
 25 60  1  0  0  0  0
 26 27  2  0  0  0  0
 26 61  1  0  0  0  0
 27 28  1  0  0  0  0
 27 62  1  0  0  0  0
 29 34  2  0  0  0  0
 29 30  1  0  0  0  0
 30 31  2  0  0  0  0
 30 63  1  0  0  0  0
 31 32  1  0  0  0  0
 31 39  1  0  0  0  0
 32 33  2  0  0  0  0
 32 37  1  0  0  0  0
 33 34  1  0  0  0  0
 33 35  1  0  0  0  0
 34 64  1  0  0  0  0
 35 36  1  0  0  0  0
 36 65  1  0  0  0  0
 36 66  1  0  0  0  0
 36 67  1  0  0  0  0
 37 38  1  0  0  0  0
 38 68  1  0  0  0  0
 38 69  1  0  0  0  0
 38 70  1  0  0  0  0
 39 40  1  0  0  0  0
 40 71  1  0  0  0  0
 40 72  1  0  0  0  0
 40 73  1  0  0  0  0
 41 42  2  0  0  0  0
 41 43  1  0  0  0  0
 43 44  1  0  0  0  0
 44 74  1  0  0  0  0
 44 75  1  0  0  0  0
 44 76  1  0  0  0  0
M  END
$$$$
CHEMBL539357
  -OEChem-07121202283D

 77 81  0     0  0  0  0  0  0999 V2000
   -3.2484   -6.2536   -3.3065 C   0  0  0  0  0  0  0  0  0  0  0  0
   -2.5369   -4.9742   -3.6645 C   0  0  0  0  0  0  0  0  0  0  0  0
   -1.5699   -4.4697   -2.8154 C   0  0  0  0  0  0  0  0  0  0  0  0
   -0.9214   -3.2922   -3.1540 C   0  0  0  0  0  0  0  0  0  0  0  0
   -1.2713   -2.6633   -4.3394 C   0  0  0  0  0  0  0  0  0  0  0  0
   -2.2478   -3.2273   -5.1380 C   0  0  0  0  0  0  0  0  0  0  0  0
   -2.8402   -4.3520   -4.7867 N   0  3  0  0  0  0  0  0  0  0  0  0
    0.1383   -2.7091   -2.2551 C   0  0  0  0  0  0  0  0  0  0  0  0
    1.4623   -3.1102   -2.7370 N   0  0  0  0  0  0  0  0  0  0  0  0
    2.1373   -2.2752   -3.6031 C   0  0  0  0  0  0  0  0  0  0  0  0
    3.3893   -2.6006   -4.0910 C   0  0  0  0  0  0  0  0  0  0  0  0
    4.0113   -3.8645   -3.6749 C   0  0  0  0  0  0  0  0  0  0  0  0
    5.2766   -4.2499   -4.1335 C   0  0  0  0  0  0  0  0  0  0  0  0
    5.7849   -5.4438   -3.6967 C   0  0  0  0  0  0  0  0  0  0  0  0
    5.0388   -6.2330   -2.8187 C   0  0  0  0  0  0  0  0  0  0  0  0
    3.8473   -5.8548   -2.3960 N   0  0  0  0  0  0  0  0  0  0  0  0
    3.3098   -4.7068   -2.7894 C   0  0  0  0  0  0  0  0  0  0  0  0
    1.9812   -4.2782   -2.3155 C   0  0  0  0  0  0  0  0  0  0  0  0
    1.3525   -4.9819   -1.5467 O   0  0  0  0  0  0  0  0  0  0  0  0
    5.5496   -7.4140   -2.3916 O   0  0  0  0  0  0  0  0  0  0  0  0
    4.7453   -8.1822   -1.4945 C   0  0  0  0  0  0  0  0  0  0  0  0
    5.4819   -9.4715   -1.1257 C   0  0  0  0  0  0  0  0  0  0  0  0
    4.6337  -10.2817   -0.1796 C   0  0  0  0  0  0  0  0  0  0  0  0
    4.3260  -11.5930   -0.4903 C   0  0  0  0  0  0  0  0  0  0  0  0
    3.5450  -12.3296    0.3869 C   0  0  0  0  0  0  0  0  0  0  0  0
    3.1008  -11.7169    1.5489 C   0  0  0  0  0  0  0  0  0  0  0  0
    3.4488  -10.4020    1.7923 C   0  0  0  0  0  0  0  0  0  0  0  0
    4.1982   -9.7332    0.9376 N   0  0  0  0  0  0  0  0  0  0  0  0
    4.0918   -1.6896   -5.0187 C   0  0  0  0  0  0  0  0  0  0  0  0
    3.5632   -1.4387   -6.2867 C   0  0  0  0  0  0  0  0  0  0  0  0
    4.2225   -0.5858   -7.1531 C   0  0  0  0  0  0  0  0  0  0  0  0
    5.4120    0.0222   -6.7621 C   0  0  0  0  0  0  0  0  0  0  0  0
    5.9408   -0.2263   -5.4989 C   0  0  0  0  0  0  0  0  0  0  0  0
    5.2823   -1.0739   -4.6267 C   0  0  0  0  0  0  0  0  0  0  0  0
    7.1035    0.3690   -5.1200 O   0  0  0  0  0  0  0  0  0  0  0  0
    7.5888    0.0691   -3.8098 C   0  0  0  0  0  0  0  0  0  0  0  0
    6.0586    0.8601   -7.6160 O   0  0  0  0  0  0  0  0  0  0  0  0
    5.7098    2.2445   -7.5549 C   0  0  0  0  0  0  0  0  0  0  0  0
    3.7085   -0.3413   -8.3882 O   0  0  0  0  0  0  0  0  0  0  0  0
    2.4851   -0.9992   -8.7236 C   0  0  0  0  0  0  0  0  0  0  0  0
    1.5124   -1.0141   -4.0161 C   0  0  0  0  0  0  0  0  0  0  0  0
    2.1095   -0.2521   -4.7521 O   0  0  0  0  0  0  0  0  0  0  0  0
    0.2753   -0.6995   -3.5795 O   0  0  0  0  0  0  0  0  0  0  0  0
   -0.2718    0.5445   -4.0214 C   0  0  0  0  0  0  0  0  0  0  0  0
   -2.6984   -7.1016   -3.7144 H   0  0  0  0  0  0  0  0  0  0  0  0
   -3.3064   -6.3458   -2.2219 H   0  0  0  0  0  0  0  0  0  0  0  0
   -4.2551   -6.2386   -3.7242 H   0  0  0  0  0  0  0  0  0  0  0  0
   -1.3230   -4.9860   -1.8995 H   0  0  0  0  0  0  0  0  0  0  0  0
   -0.7869   -1.7443   -4.6345 H   0  0  0  0  0  0  0  0  0  0  0  0
   -2.5260   -2.7437   -6.0628 H   0  0  0  0  0  0  0  0  0  0  0  0
    0.0630   -1.6217   -2.2625 H   0  0  0  0  0  0  0  0  0  0  0  0
   -0.0051   -3.0763   -1.2388 H   0  0  0  0  0  0  0  0  0  0  0  0
    5.8357   -3.6235   -4.8128 H   0  0  0  0  0  0  0  0  0  0  0  0
    6.7579   -5.7738   -4.0297 H   0  0  0  0  0  0  0  0  0  0  0  0
    4.5532   -7.6026   -0.5916 H   0  0  0  0  0  0  0  0  0  0  0  0
    3.7990   -8.4294   -1.9757 H   0  0  0  0  0  0  0  0  0  0  0  0
    5.6740  -10.0512   -2.0286 H   0  0  0  0  0  0  0  0  0  0  0  0
    6.4282   -9.2244   -0.6445 H   0  0  0  0  0  0  0  0  0  0  0  0
    4.6890  -12.0379   -1.4049 H   0  0  0  0  0  0  0  0  0  0  0  0
    3.2884  -13.3560    0.1701 H   0  0  0  0  0  0  0  0  0  0  0  0
    2.4902  -12.2606    2.2546 H   0  0  0  0  0  0  0  0  0  0  0  0
    3.1069   -9.9177    2.6950 H   0  0  0  0  0  0  0  0  0  0  0  0
    2.6405   -1.9105   -6.5907 H   0  0  0  0  0  0  0  0  0  0  0  0
    5.6906   -1.2626   -3.6449 H   0  0  0  0  0  0  0  0  0  0  0  0
    6.8490    0.3739   -3.0697 H   0  0  0  0  0  0  0  0  0  0  0  0
    7.7674   -1.0028   -3.7250 H   0  0  0  0  0  0  0  0  0  0  0  0
    8.5204    0.6076   -3.6354 H   0  0  0  0  0  0  0  0  0  0  0  0
    6.2974    2.7998   -8.2859 H   0  0  0  0  0  0  0  0  0  0  0  0
    4.6491    2.3620   -7.7765 H   0  0  0  0  0  0  0  0  0  0  0  0
    5.9169    2.6276   -6.5557 H   0  0  0  0  0  0  0  0  0  0  0  0
    2.1864   -0.7181   -9.7334 H   0  0  0  0  0  0  0  0  0  0  0  0
    2.6275   -2.0787   -8.6740 H   0  0  0  0  0  0  0  0  0  0  0  0
    1.7081   -0.7025   -8.0190 H   0  0  0  0  0  0  0  0  0  0  0  0
    0.3711    1.3612   -3.6932 H   0  0  0  0  0  0  0  0  0  0  0  0
   -0.3358    0.5472   -5.1095 H   0  0  0  0  0  0  0  0  0  0  0  0
   -1.2681    0.6739   -3.5985 H   0  0  0  0  0  0  0  0  0  0  0  0
   -3.5198   -4.7292   -5.3671 H   0  0  0  0  0  0  0  0  0  0  0  0
  1  2  1  0  0  0  0
  1 45  1  0  0  0  0
  1 46  1  0  0  0  0
  1 47  1  0  0  0  0
  2  7  2  0  0  0  0
  2  3  1  0  0  0  0
  3  4  2  0  0  0  0
  3 48  1  0  0  0  0
  4  5  1  0  0  0  0
  4  8  1  0  0  0  0
  5  6  2  0  0  0  0
  5 49  1  0  0  0  0
  6  7  1  0  0  0  0
  6 50  1  0  0  0  0
  7 77  1  0  0  0  0
  8  9  1  0  0  0  0
  8 51  1  0  0  0  0
  8 52  1  0  0  0  0
  9 18  1  0  0  0  0
  9 10  1  0  0  0  0
 10 11  2  0  0  0  0
 10 41  1  0  0  0  0
 11 12  1  0  0  0  0
 11 29  1  0  0  0  0
 12 17  2  0  0  0  0
 12 13  1  0  0  0  0
 13 14  2  0  0  0  0
 13 53  1  0  0  0  0
 14 15  1  0  0  0  0
 14 54  1  0  0  0  0
 15 16  2  0  0  0  0
 15 20  1  0  0  0  0
 16 17  1  0  0  0  0
 17 18  1  0  0  0  0
 18 19  2  0  0  0  0
 20 21  1  0  0  0  0
 21 22  1  0  0  0  0
 21 55  1  0  0  0  0
 21 56  1  0  0  0  0
 22 23  1  0  0  0  0
 22 57  1  0  0  0  0
 22 58  1  0  0  0  0
 23 28  2  0  0  0  0
 23 24  1  0  0  0  0
 24 25  2  0  0  0  0
 24 59  1  0  0  0  0
 25 26  1  0  0  0  0
 25 60  1  0  0  0  0
 26 27  2  0  0  0  0
 26 61  1  0  0  0  0
 27 28  1  0  0  0  0
 27 62  1  0  0  0  0
 29 34  2  0  0  0  0
 29 30  1  0  0  0  0
 30 31  2  0  0  0  0
 30 63  1  0  0  0  0
 31 32  1  0  0  0  0
 31 39  1  0  0  0  0
 32 33  2  0  0  0  0
 32 37  1  0  0  0  0
 33 34  1  0  0  0  0
 33 35  1  0  0  0  0
 34 64  1  0  0  0  0
 35 36  1  0  0  0  0
 36 65  1  0  0  0  0
 36 66  1  0  0  0  0
 36 67  1  0  0  0  0
 37 38  1  0  0  0  0
 38 68  1  0  0  0  0
 38 69  1  0  0  0  0
 38 70  1  0  0  0  0
 39 40  1  0  0  0  0
 40 71  1  0  0  0  0
 40 72  1  0  0  0  0
 40 73  1  0  0  0  0
 41 42  2  0  0  0  0
 41 43  1  0  0  0  0
 43 44  1  0  0  0  0
 44 74  1  0  0  0  0
 44 75  1  0  0  0  0
 44 76  1  0  0  0  0
M  CHG  1   7   1
M  END
$$$$
CHEMBL544289
  -OEChem-07121202283D

 71 75  0     0  0  0  0  0  0999 V2000
    1.8100    3.1482   -0.3421 C   0  0  0  0  0  0  0  0  0  0  0  0
    1.3915    1.8171   -0.6502 O   0  0  0  0  0  0  0  0  0  0  0  0
    1.4829    0.8951    0.3454 C   0  0  0  0  0  0  0  0  0  0  0  0
    1.9589    1.2667    1.5896 C   0  0  0  0  0  0  0  0  0  0  0  0
    2.0526    0.3195    2.6115 C   0  0  0  0  0  0  0  0  0  0  0  0
    1.6652   -1.0010    2.3740 C   0  0  0  0  0  0  0  0  0  0  0  0
    1.1898   -1.3676    1.1281 C   0  0  0  0  0  0  0  0  0  0  0  0
    1.0921   -0.4204    0.1129 C   0  0  0  0  0  0  0  0  0  0  0  0
    0.6192   -0.7820   -1.1097 O   0  0  0  0  0  0  0  0  0  0  0  0
    1.5769   -1.2402   -2.0662 C   0  0  0  0  0  0  0  0  0  0  0  0
    0.8128   -2.6535    0.8961 O   0  0  0  0  0  0  0  0  0  0  0  0
    0.9345   -3.5716    1.9843 C   0  0  0  0  0  0  0  0  0  0  0  0
    2.5613    0.7137    3.9418 C   0  0  0  0  0  0  0  0  0  0  0  0
    3.8249    0.1607    4.4503 C   0  0  0  0  0  0  0  0  0  0  0  0
    4.5795   -0.7442    3.7042 C   0  0  0  0  0  0  0  0  0  0  0  0
    5.7576   -1.2369    4.2192 C   0  0  0  0  0  0  0  0  0  0  0  0
    6.2017   -0.8398    5.4785 C   0  0  0  0  0  0  0  0  0  0  0  0
    5.4658    0.0574    6.2340 C   0  0  0  0  0  0  0  0  0  0  0  0
    4.2727    0.5659    5.7277 C   0  0  0  0  0  0  0  0  0  0  0  0
    3.4581    1.5213    6.4926 C   0  0  0  0  0  0  0  0  0  0  0  0
    3.8222    1.8866    7.5955 O   0  0  0  0  0  0  0  0  0  0  0  0
    2.3095    1.9921    5.9719 N   0  0  0  0  0  0  0  0  0  0  0  0
    1.8583    1.6122    4.7230 C   0  0  0  0  0  0  0  0  0  0  0  0
    0.6013    2.1705    4.2161 C   0  0  0  0  0  0  0  0  0  0  0  0
    0.2228    1.8956    3.0934 O   0  0  0  0  0  0  0  0  0  0  0  0
   -0.1358    2.9893    4.9948 O   0  0  0  0  0  0  0  0  0  0  0  0
   -1.4031    3.4052    4.4820 C   0  0  0  0  0  0  0  0  0  0  0  0
    1.5500    2.9012    6.7186 C   0  0  0  0  0  0  0  0  0  0  0  0
    0.4940    2.4479    7.4991 C   0  0  0  0  0  0  0  0  0  0  0  0
   -0.2543    3.3438    8.2355 C   0  0  0  0  0  0  0  0  0  0  0  0
    0.0485    4.6991    8.1961 C   0  0  0  0  0  0  0  0  0  0  0  0
    1.1046    5.1524    7.4155 C   0  0  0  0  0  0  0  0  0  0  0  0
    1.8562    4.2557    6.6834 C   0  0  0  0  0  0  0  0  0  0  0  0
   -0.7097    5.6068    8.9416 N   0  0  0  0  0  0  0  0  0  0  0  0
    7.3663   -1.3373    5.9696 O   0  0  0  0  0  0  0  0  0  0  0  0
    8.0783   -2.2590    5.1417 C   0  0  0  0  0  0  0  0  0  0  0  0
    9.3351   -2.7001    5.8466 C   0  0  0  0  0  0  0  0  0  0  0  0
   10.5171   -1.9938    5.6822 C   0  0  0  0  0  0  0  0  0  0  0  0
   11.6484   -2.4363    6.3502 C   0  0  0  0  0  0  0  0  0  0  0  0
   11.5613   -3.5587    7.1522 C   0  0  0  0  0  0  0  0  0  0  0  0
   10.4202   -4.2060    7.2848 N   0  0  0  0  0  0  0  0  0  0  0  0
    9.3229   -3.8102    6.6694 C   0  0  0  0  0  0  0  0  0  0  0  0
    2.8590    3.1400   -0.0460 H   0  0  0  0  0  0  0  0  0  0  0  0
    1.6855    3.7808   -1.2209 H   0  0  0  0  0  0  0  0  0  0  0  0
    1.2047    3.5393    0.4757 H   0  0  0  0  0  0  0  0  0  0  0  0
    2.2583    2.2885    1.7707 H   0  0  0  0  0  0  0  0  0  0  0  0
    1.7370   -1.7355    3.1626 H   0  0  0  0  0  0  0  0  0  0  0  0
    2.0863   -2.1216   -1.6767 H   0  0  0  0  0  0  0  0  0  0  0  0
    1.0684   -1.4955   -2.9959 H   0  0  0  0  0  0  0  0  0  0  0  0
    2.3066   -0.4529   -2.2555 H   0  0  0  0  0  0  0  0  0  0  0  0
    1.9763   -3.6244    2.3003 H   0  0  0  0  0  0  0  0  0  0  0  0
    0.3189   -3.2317    2.8171 H   0  0  0  0  0  0  0  0  0  0  0  0
    0.6011   -4.5592    1.6654 H   0  0  0  0  0  0  0  0  0  0  0  0
    4.2412   -1.0572    2.7275 H   0  0  0  0  0  0  0  0  0  0  0  0
    6.3424   -1.9377    3.6419 H   0  0  0  0  0  0  0  0  0  0  0  0
    5.8153    0.3610    7.2097 H   0  0  0  0  0  0  0  0  0  0  0  0
   -1.9271    3.9895    5.2384 H   0  0  0  0  0  0  0  0  0  0  0  0
   -1.2521    4.0155    3.5915 H   0  0  0  0  0  0  0  0  0  0  0  0
   -1.9966    2.5279    4.2249 H   0  0  0  0  0  0  0  0  0  0  0  0
    0.2584    1.3943    7.5294 H   0  0  0  0  0  0  0  0  0  0  0  0
   -1.0754    2.9914    8.8420 H   0  0  0  0  0  0  0  0  0  0  0  0
    1.3400    6.2060    7.3849 H   0  0  0  0  0  0  0  0  0  0  0  0
    2.6799    4.6076    6.0800 H   0  0  0  0  0  0  0  0  0  0  0  0
   -1.4473    5.2903    9.4864 H   0  0  0  0  0  0  0  0  0  0  0  0
   -0.4983    6.5531    8.9141 H   0  0  0  0  0  0  0  0  0  0  0  0
    7.4504   -3.1272    4.9411 H   0  0  0  0  0  0  0  0  0  0  0  0
    8.3403   -1.7749    4.2009 H   0  0  0  0  0  0  0  0  0  0  0  0
   10.5554   -1.1201    5.0486 H   0  0  0  0  0  0  0  0  0  0  0  0
   12.5861   -1.9108    6.2450 H   0  0  0  0  0  0  0  0  0  0  0  0
   12.4381   -3.9098    7.6759 H   0  0  0  0  0  0  0  0  0  0  0  0
    8.4052   -4.3629    6.8065 H   0  0  0  0  0  0  0  0  0  0  0  0
  1  2  1  0  0  0  0
  1 43  1  0  0  0  0
  1 44  1  0  0  0  0
  1 45  1  0  0  0  0
  2  3  1  0  0  0  0
  3  8  2  0  0  0  0
  3  4  1  0  0  0  0
  4  5  2  0  0  0  0
  4 46  1  0  0  0  0
  5  6  1  0  0  0  0
  5 13  1  0  0  0  0
  6  7  2  0  0  0  0
  6 47  1  0  0  0  0
  7  8  1  0  0  0  0
  7 11  1  0  0  0  0
  8  9  1  0  0  0  0
  9 10  1  0  0  0  0
 10 48  1  0  0  0  0
 10 49  1  0  0  0  0
 10 50  1  0  0  0  0
 11 12  1  0  0  0  0
 12 51  1  0  0  0  0
 12 52  1  0  0  0  0
 12 53  1  0  0  0  0
 13 23  2  0  0  0  0
 13 14  1  0  0  0  0
 14 19  2  0  0  0  0
 14 15  1  0  0  0  0
 15 16  2  0  0  0  0
 15 54  1  0  0  0  0
 16 17  1  0  0  0  0
 16 55  1  0  0  0  0
 17 18  2  0  0  0  0
 17 35  1  0  0  0  0
 18 19  1  0  0  0  0
 18 56  1  0  0  0  0
 19 20  1  0  0  0  0
 20 21  2  0  0  0  0
 20 22  1  0  0  0  0
 22 23  1  0  0  0  0
 22 28  1  0  0  0  0
 23 24  1  0  0  0  0
 24 25  2  0  0  0  0
 24 26  1  0  0  0  0
 26 27  1  0  0  0  0
 27 57  1  0  0  0  0
 27 58  1  0  0  0  0
 27 59  1  0  0  0  0
 28 33  2  0  0  0  0
 28 29  1  0  0  0  0
 29 30  2  0  0  0  0
 29 60  1  0  0  0  0
 30 31  1  0  0  0  0
 30 61  1  0  0  0  0
 31 32  2  0  0  0  0
 31 34  1  0  0  0  0
 32 33  1  0  0  0  0
 32 62  1  0  0  0  0
 33 63  1  0  0  0  0
 34 64  1  0  0  0  0
 34 65  1  0  0  0  0
 35 36  1  0  0  0  0
 36 37  1  0  0  0  0
 36 66  1  0  0  0  0
 36 67  1  0  0  0  0
 37 42  2  0  0  0  0
 37 38  1  0  0  0  0
 38 39  2  0  0  0  0
 38 68  1  0  0  0  0
 39 40  1  0  0  0  0
 39 69  1  0  0  0  0
 40 41  2  0  0  0  0
 40 70  1  0  0  0  0
 41 42  1  0  0  0  0
 42 71  1  0  0  0  0
M  END
$$$$
CHEMBL553786
  -OEChem-07121202283D

 71 75  0     0  0  0  0  0  0999 V2000
   -0.6525    3.1030    1.8024 C   0  0  0  0  0  0  0  0  0  0  0  0
   -0.1558    1.7839    1.5675 O   0  0  0  0  0  0  0  0  0  0  0  0
   -1.0493    0.8564    1.1305 C   0  0  0  0  0  0  0  0  0  0  0  0
   -2.3705    1.2116    0.9280 C   0  0  0  0  0  0  0  0  0  0  0  0
   -3.2876    0.2588    0.4792 C   0  0  0  0  0  0  0  0  0  0  0  0
   -2.8678   -1.0508    0.2361 C   0  0  0  0  0  0  0  0  0  0  0  0
   -1.5455   -1.4009    0.4402 C   0  0  0  0  0  0  0  0  0  0  0  0
   -0.6322   -0.4480    0.8820 C   0  0  0  0  0  0  0  0  0  0  0  0
    0.6686   -0.7934    1.0766 O   0  0  0  0  0  0  0  0  0  0  0  0
    1.0255   -1.2721    2.3748 C   0  0  0  0  0  0  0  0  0  0  0  0
   -1.1361   -2.6761    0.2040 O   0  0  0  0  0  0  0  0  0  0  0  0
   -2.1250   -3.6008   -0.2530 C   0  0  0  0  0  0  0  0  0  0  0  0
   -4.7000    0.6355    0.2625 C   0  0  0  0  0  0  0  0  0  0  0  0
   -5.7633    0.0491    1.0913 C   0  0  0  0  0  0  0  0  0  0  0  0
   -5.4801   -0.8718    2.0995 C   0  0  0  0  0  0  0  0  0  0  0  0
   -6.5072   -1.3957    2.8522 C   0  0  0  0  0  0  0  0  0  0  0  0
   -7.8259   -1.0143    2.6151 C   0  0  0  0  0  0  0  0  0  0  0  0
   -8.1264   -0.1016    1.6182 C   0  0  0  0  0  0  0  0  0  0  0  0
   -7.0996    0.4385    0.8484 C   0  0  0  0  0  0  0  0  0  0  0  0
   -7.3699    1.4114   -0.2202 C   0  0  0  0  0  0  0  0  0  0  0  0
   -8.5127    1.7636   -0.4490 O   0  0  0  0  0  0  0  0  0  0  0  0
   -6.3523    1.9126   -0.9450 N   0  0  0  0  0  0  0  0  0  0  0  0
   -5.0393    1.5486   -0.7188 C   0  0  0  0  0  0  0  0  0  0  0  0
   -3.9808    2.1400   -1.5425 C   0  0  0  0  0  0  0  0  0  0  0  0
   -2.8152    1.8786   -1.3144 O   0  0  0  0  0  0  0  0  0  0  0  0
   -4.2997    2.9744   -2.5537 O   0  0  0  0  0  0  0  0  0  0  0  0
   -3.2287    3.4238   -3.3862 C   0  0  0  0  0  0  0  0  0  0  0  0
   -6.6336    2.8380   -1.9577 C   0  0  0  0  0  0  0  0  0  0  0  0
   -6.7748    2.4085   -3.2712 C   0  0  0  0  0  0  0  0  0  0  0  0
   -7.0525    3.3204   -4.2694 C   0  0  0  0  0  0  0  0  0  0  0  0
   -7.1908    4.6678   -3.9604 C   0  0  0  0  0  0  0  0  0  0  0  0
   -7.0496    5.0972   -2.6467 C   0  0  0  0  0  0  0  0  0  0  0  0
   -6.7771    4.1845   -1.6479 C   0  0  0  0  0  0  0  0  0  0  0  0
   -7.4717    5.5916   -4.9715 N   0  0  0  0  0  0  0  0  0  0  0  0
   -8.8254   -1.5426    3.3679 O   0  0  0  0  0  0  0  0  0  0  0  0
   -8.4499   -2.4790    4.3799 C   0  0  0  0  0  0  0  0  0  0  0  0
   -9.6816   -2.9540    5.1068 C   0  0  0  0  0  0  0  0  0  0  0  0
  -10.1476   -2.2830    6.2271 C   0  0  0  0  0  0  0  0  0  0  0  0
  -11.2804   -2.7479    6.8678 C   0  0  0  0  0  0  0  0  0  0  0  0
  -11.9152   -3.8158    6.4255 N   0  0  0  0  0  0  0  0  0  0  0  0
  -11.5007   -4.4787    5.3636 C   0  0  0  0  0  0  0  0  0  0  0  0
  -10.3790   -4.0691    4.6679 C   0  0  0  0  0  0  0  0  0  0  0  0
    0.1610    3.7416    2.1466 H   0  0  0  0  0  0  0  0  0  0  0  0
   -1.0644    3.5063    0.8773 H   0  0  0  0  0  0  0  0  0  0  0  0
   -1.4330    3.0674    2.5624 H   0  0  0  0  0  0  0  0  0  0  0  0
   -2.6929    2.2249    1.1171 H   0  0  0  0  0  0  0  0  0  0  0  0
   -3.5751   -1.7895   -0.1106 H   0  0  0  0  0  0  0  0  0  0  0  0
    2.0888   -1.5113    2.3942 H   0  0  0  0  0  0  0  0  0  0  0  0
    0.8126   -0.5027    3.1170 H   0  0  0  0  0  0  0  0  0  0  0  0
    0.4474   -2.1674    2.6036 H   0  0  0  0  0  0  0  0  0  0  0  0
   -2.9186   -3.6808    0.4899 H   0  0  0  0  0  0  0  0  0  0  0  0
   -2.5440   -3.2484   -1.1956 H   0  0  0  0  0  0  0  0  0  0  0  0
   -1.6669   -4.5786   -0.4020 H   0  0  0  0  0  0  0  0  0  0  0  0
   -4.4603   -1.1728    2.2887 H   0  0  0  0  0  0  0  0  0  0  0  0
   -6.2886   -2.1090    3.6332 H   0  0  0  0  0  0  0  0  0  0  0  0
   -9.1508    0.1898    1.4390 H   0  0  0  0  0  0  0  0  0  0  0  0
   -3.6310    4.0184   -4.2064 H   0  0  0  0  0  0  0  0  0  0  0  0
   -2.5425    4.0332   -2.7981 H   0  0  0  0  0  0  0  0  0  0  0  0
   -2.6957    2.5625   -3.7891 H   0  0  0  0  0  0  0  0  0  0  0  0
   -6.6669    1.3611   -3.5115 H   0  0  0  0  0  0  0  0  0  0  0  0
   -7.1619    2.9866   -5.2906 H   0  0  0  0  0  0  0  0  0  0  0  0
   -7.1572    6.1446   -2.4065 H   0  0  0  0  0  0  0  0  0  0  0  0
   -6.6718    4.5177   -0.6260 H   0  0  0  0  0  0  0  0  0  0  0  0
   -7.5700    5.2918   -5.8887 H   0  0  0  0  0  0  0  0  0  0  0  0
   -7.5683    6.5324   -4.7557 H   0  0  0  0  0  0  0  0  0  0  0  0
   -7.9489   -3.3304    3.9192 H   0  0  0  0  0  0  0  0  0  0  0  0
   -7.7735   -1.9983    5.0867 H   0  0  0  0  0  0  0  0  0  0  0  0
   -9.6316   -1.4082    6.5945 H   0  0  0  0  0  0  0  0  0  0  0  0
  -11.6498   -2.2309    7.7411 H   0  0  0  0  0  0  0  0  0  0  0  0
  -12.0466   -5.3493    5.0312 H   0  0  0  0  0  0  0  0  0  0  0  0
  -10.0473   -4.6132    3.7959 H   0  0  0  0  0  0  0  0  0  0  0  0
  1  2  1  0  0  0  0
  1 43  1  0  0  0  0
  1 44  1  0  0  0  0
  1 45  1  0  0  0  0
  2  3  1  0  0  0  0
  3  8  2  0  0  0  0
  3  4  1  0  0  0  0
  4  5  2  0  0  0  0
  4 46  1  0  0  0  0
  5  6  1  0  0  0  0
  5 13  1  0  0  0  0
  6  7  2  0  0  0  0
  6 47  1  0  0  0  0
  7  8  1  0  0  0  0
  7 11  1  0  0  0  0
  8  9  1  0  0  0  0
  9 10  1  0  0  0  0
 10 48  1  0  0  0  0
 10 49  1  0  0  0  0
 10 50  1  0  0  0  0
 11 12  1  0  0  0  0
 12 51  1  0  0  0  0
 12 52  1  0  0  0  0
 12 53  1  0  0  0  0
 13 23  2  0  0  0  0
 13 14  1  0  0  0  0
 14 19  2  0  0  0  0
 14 15  1  0  0  0  0
 15 16  2  0  0  0  0
 15 54  1  0  0  0  0
 16 17  1  0  0  0  0
 16 55  1  0  0  0  0
 17 18  2  0  0  0  0
 17 35  1  0  0  0  0
 18 19  1  0  0  0  0
 18 56  1  0  0  0  0
 19 20  1  0  0  0  0
 20 21  2  0  0  0  0
 20 22  1  0  0  0  0
 22 23  1  0  0  0  0
 22 28  1  0  0  0  0
 23 24  1  0  0  0  0
 24 25  2  0  0  0  0
 24 26  1  0  0  0  0
 26 27  1  0  0  0  0
 27 57  1  0  0  0  0
 27 58  1  0  0  0  0
 27 59  1  0  0  0  0
 28 33  2  0  0  0  0
 28 29  1  0  0  0  0
 29 30  2  0  0  0  0
 29 60  1  0  0  0  0
 30 31  1  0  0  0  0
 30 61  1  0  0  0  0
 31 32  2  0  0  0  0
 31 34  1  0  0  0  0
 32 33  1  0  0  0  0
 32 62  1  0  0  0  0
 33 63  1  0  0  0  0
 34 64  1  0  0  0  0
 34 65  1  0  0  0  0
 35 36  1  0  0  0  0
 36 37  1  0  0  0  0
 36 66  1  0  0  0  0
 36 67  1  0  0  0  0
 37 42  2  0  0  0  0
 37 38  1  0  0  0  0
 38 39  2  0  0  0  0
 38 68  1  0  0  0  0
 39 40  1  0  0  0  0
 39 69  1  0  0  0  0
 40 41  2  0  0  0  0
 41 42  1  0  0  0  0
 41 70  1  0  0  0  0
 42 71  1  0  0  0  0
M  END
$$$$
CHEMBL423177
  -OEChem-07121202283D

 46 51  0     1  0  0  0  0  0999 V2000
   -0.0165    1.3628    0.0095 C   0  0  0  0  0  0  0  0  0  0  0  0
    1.1698    2.0838    0.0021 C   0  0  0  0  0  0  0  0  0  0  0  0
    2.3862    1.4376   -0.0135 C   0  0  0  0  0  0  0  0  0  0  0  0
    2.4284    0.0458   -0.0214 C   0  0  0  0  0  0  0  0  0  0  0  0
    1.2231   -0.6777   -0.0133 C   0  0  0  0  0  0  0  0  0  0  0  0
    0.0021   -0.0041    0.0020 C   0  0  0  0  0  0  0  0  0  0  0  0
    1.2934   -2.1480   -0.0219 C   0  0  0  0  0  0  0  0  0  0  0  0
    2.5744   -2.7535   -0.0380 C   0  0  0  0  0  0  0  0  0  0  0  0
    3.6874   -1.9921   -0.0449 C   0  0  0  0  0  0  0  0  0  0  0  0
    3.6240   -0.6315   -0.0374 N   0  0  0  0  0  0  0  0  0  0  0  0
    4.9010   -2.8944   -0.0614 C   0  0  2  0  0  0  0  0  0  0  0  0
    4.4244   -4.2808   -0.0638 N   0  0  0  0  0  0  0  0  0  0  0  0
    2.9595   -4.2121   -0.0492 C   0  0  0  0  0  0  0  0  0  0  0  0
    5.1813   -5.3958   -0.0778 C   0  0  0  0  0  0  0  0  0  0  0  0
    6.3951   -5.3073   -0.0901 O   0  0  0  0  0  0  0  0  0  0  0  0
    4.5428   -6.7150   -0.0782 C   0  0  0  0  0  0  0  0  0  0  0  0
    5.1881   -7.9189   -0.0860 C   0  0  0  0  0  0  0  0  0  0  0  0
    4.1949   -8.9095   -0.0832 C   0  0  0  0  0  0  0  0  0  0  0  0
    2.9998   -8.2751   -0.0739 C   0  0  0  0  0  0  0  0  0  0  0  0
    3.2144   -6.9529   -0.0651 O   0  0  0  0  0  0  0  0  0  0  0  0
    1.3062   -9.1163   -0.0664 Br  0  0  0  0  0  0  0  0  0  0  0  0
    5.7400   -2.6447    1.1653 C   0  0  0  0  0  0  0  0  0  0  0  0
    5.3847   -3.2176    2.3723 C   0  0  0  0  0  0  0  0  0  0  0  0
    6.1514   -2.9919    3.5002 C   0  0  0  0  0  0  0  0  0  0  0  0
    7.2785   -2.1899    3.4234 C   0  0  0  0  0  0  0  0  0  0  0  0
    7.6364   -1.6128    2.2075 C   0  0  0  0  0  0  0  0  0  0  0  0
    6.8665   -1.8480    1.0799 C   0  0  0  0  0  0  0  0  0  0  0  0
    8.7708   -0.8762    2.3914 O   0  0  0  0  0  0  0  0  0  0  0  0
    8.8731   -0.6764    3.8137 C   0  0  0  0  0  0  0  0  0  0  0  0
    8.1887   -1.8150    4.3690 O   0  0  0  0  0  0  0  0  0  0  0  0
    0.2786   -2.8253   -0.0151 O   0  0  0  0  0  0  0  0  0  0  0  0
   -0.9613    1.8858    0.0259 H   0  0  0  0  0  0  0  0  0  0  0  0
    1.1386    3.1633    0.0082 H   0  0  0  0  0  0  0  0  0  0  0  0
    3.3032    2.0080   -0.0199 H   0  0  0  0  0  0  0  0  0  0  0  0
   -0.9242   -0.5595    0.0083 H   0  0  0  0  0  0  0  0  0  0  0  0
    5.4905   -2.7047   -0.9584 H   0  0  0  0  0  0  0  0  0  0  0  0
    2.5749   -4.7034    0.8446 H   0  0  0  0  0  0  0  0  0  0  0  0
    2.5575   -4.6942   -0.9403 H   0  0  0  0  0  0  0  0  0  0  0  0
    6.2564   -8.0775   -0.0933 H   0  0  0  0  0  0  0  0  0  0  0  0
    4.3542   -9.9777   -0.0882 H   0  0  0  0  0  0  0  0  0  0  0  0
    4.5060   -3.8425    2.4343 H   0  0  0  0  0  0  0  0  0  0  0  0
    5.8715   -3.4407    4.4418 H   0  0  0  0  0  0  0  0  0  0  0  0
    7.1442   -1.4054    0.1348 H   0  0  0  0  0  0  0  0  0  0  0  0
    9.9177   -0.6681    4.1251 H   0  0  0  0  0  0  0  0  0  0  0  0
    8.3775    0.2490    4.1071 H   0  0  0  0  0  0  0  0  0  0  0  0
    4.4504   -0.1236   -0.0431 H   0  0  0  0  0  0  0  0  0  0  0  0
  1  6  2  0  0  0  0
  1  2  1  0  0  0  0
  1 32  1  0  0  0  0
  2  3  2  0  0  0  0
  2 33  1  0  0  0  0
  3  4  1  0  0  0  0
  3 34  1  0  0  0  0
  4 10  1  0  0  0  0
  4  5  2  0  0  0  0
  5  6  1  0  0  0  0
  5  7  1  0  0  0  0
  6 35  1  0  0  0  0
  7  8  1  0  0  0  0
  7 31  2  0  0  0  0
  8 13  1  0  0  0  0
  8  9  2  0  0  0  0
  9 10  1  0  0  0  0
  9 11  1  0  0  0  0
 10 46  1  0  0  0  0
 11 12  1  0  0  0  0
 11 22  1  0  0  0  0
 11 36  1  0  0  0  0
 12 13  1  0  0  0  0
 12 14  1  0  0  0  0
 13 37  1  0  0  0  0
 13 38  1  0  0  0  0
 14 15  2  0  0  0  0
 14 16  1  0  0  0  0
 16 20  1  0  0  0  0
 16 17  2  0  0  0  0
 17 18  1  0  0  0  0
 17 39  1  0  0  0  0
 18 19  2  0  0  0  0
 18 40  1  0  0  0  0
 19 20  1  0  0  0  0
 19 21  1  0  0  0  0
 22 27  2  0  0  0  0
 22 23  1  0  0  0  0
 23 24  2  0  0  0  0
 23 41  1  0  0  0  0
 24 25  1  0  0  0  0
 24 42  1  0  0  0  0
 25 30  1  0  0  0  0
 25 26  2  0  0  0  0
 26 27  1  0  0  0  0
 26 28  1  0  0  0  0
 27 43  1  0  0  0  0
 28 29  1  0  0  0  0
 29 30  1  0  0  0  0
 29 44  1  0  0  0  0
 29 45  1  0  0  0  0
M  END
$$$$
CHEMBL423177
  -OEChem-07121202283D

 46 51  0     1  0  0  0  0  0999 V2000
   -0.0165    1.3628    0.0095 C   0  0  0  0  0  0  0  0  0  0  0  0
    1.1698    2.0838    0.0021 C   0  0  0  0  0  0  0  0  0  0  0  0
    2.3862    1.4376   -0.0135 C   0  0  0  0  0  0  0  0  0  0  0  0
    2.4284    0.0458   -0.0214 C   0  0  0  0  0  0  0  0  0  0  0  0
    1.2231   -0.6777   -0.0133 C   0  0  0  0  0  0  0  0  0  0  0  0
    0.0021   -0.0041    0.0020 C   0  0  0  0  0  0  0  0  0  0  0  0
    1.2934   -2.1480   -0.0219 C   0  0  0  0  0  0  0  0  0  0  0  0
    2.5744   -2.7535   -0.0380 C   0  0  0  0  0  0  0  0  0  0  0  0
    3.6874   -1.9921   -0.0449 C   0  0  0  0  0  0  0  0  0  0  0  0
    3.6240   -0.6315   -0.0374 N   0  0  0  0  0  0  0  0  0  0  0  0
    4.9010   -2.8944   -0.0614 C   0  0  1  0  0  0  0  0  0  0  0  0
    4.4244   -4.2808   -0.0638 N   0  0  0  0  0  0  0  0  0  0  0  0
    2.9595   -4.2121   -0.0492 C   0  0  0  0  0  0  0  0  0  0  0  0
    5.1813   -5.3958   -0.0778 C   0  0  0  0  0  0  0  0  0  0  0  0
    6.3951   -5.3073   -0.0901 O   0  0  0  0  0  0  0  0  0  0  0  0
    4.5428   -6.7150   -0.0782 C   0  0  0  0  0  0  0  0  0  0  0  0
    5.1881   -7.9189   -0.0860 C   0  0  0  0  0  0  0  0  0  0  0  0
    4.1949   -8.9095   -0.0832 C   0  0  0  0  0  0  0  0  0  0  0  0
    2.9998   -8.2751   -0.0739 C   0  0  0  0  0  0  0  0  0  0  0  0
    3.2144   -6.9529   -0.0651 O   0  0  0  0  0  0  0  0  0  0  0  0
    1.3062   -9.1163   -0.0664 Br  0  0  0  0  0  0  0  0  0  0  0  0
    5.7160   -2.6321   -1.3016 C   0  0  0  0  0  0  0  0  0  0  0  0
    5.3306   -3.1832   -2.5095 C   0  0  0  0  0  0  0  0  0  0  0  0
    6.0746   -2.9451   -3.6500 C   0  0  0  0  0  0  0  0  0  0  0  0
    7.2095   -2.1531   -3.5847 C   0  0  0  0  0  0  0  0  0  0  0  0
    7.5977   -1.5979   -2.3679 C   0  0  0  0  0  0  0  0  0  0  0  0
    6.8440   -1.8362   -1.2301 C   0  0  0  0  0  0  0  0  0  0  0  0
    8.7339   -0.8674   -2.5644 O   0  0  0  0  0  0  0  0  0  0  0  0
    9.2645   -1.3137   -3.8263 C   0  0  0  0  0  0  0  0  0  0  0  0
    8.1025   -1.7704   -4.5435 O   0  0  0  0  0  0  0  0  0  0  0  0
    0.2786   -2.8253   -0.0151 O   0  0  0  0  0  0  0  0  0  0  0  0
   -0.9613    1.8858    0.0259 H   0  0  0  0  0  0  0  0  0  0  0  0
    1.1386    3.1633    0.0082 H   0  0  0  0  0  0  0  0  0  0  0  0
    3.3032    2.0080   -0.0199 H   0  0  0  0  0  0  0  0  0  0  0  0
   -0.9242   -0.5595    0.0083 H   0  0  0  0  0  0  0  0  0  0  0  0
    5.5079   -2.7138    0.8259 H   0  0  0  0  0  0  0  0  0  0  0  0
    2.5749   -4.7034    0.8446 H   0  0  0  0  0  0  0  0  0  0  0  0
    2.5575   -4.6942   -0.9403 H   0  0  0  0  0  0  0  0  0  0  0  0
    6.2564   -8.0775   -0.0933 H   0  0  0  0  0  0  0  0  0  0  0  0
    4.3542   -9.9777   -0.0882 H   0  0  0  0  0  0  0  0  0  0  0  0
    4.4467   -3.8015   -2.5622 H   0  0  0  0  0  0  0  0  0  0  0  0
    5.7713   -3.3769   -4.5923 H   0  0  0  0  0  0  0  0  0  0  0  0
    7.1401   -1.4033   -0.2860 H   0  0  0  0  0  0  0  0  0  0  0  0
    9.7409   -0.4881   -4.3550 H   0  0  0  0  0  0  0  0  0  0  0  0
    9.9690   -2.1321   -3.6777 H   0  0  0  0  0  0  0  0  0  0  0  0
    4.4504   -0.1236   -0.0431 H   0  0  0  0  0  0  0  0  0  0  0  0
  1  6  2  0  0  0  0
  1  2  1  0  0  0  0
  1 32  1  0  0  0  0
  2  3  2  0  0  0  0
  2 33  1  0  0  0  0
  3  4  1  0  0  0  0
  3 34  1  0  0  0  0
  4 10  1  0  0  0  0
  4  5  2  0  0  0  0
  5  6  1  0  0  0  0
  5  7  1  0  0  0  0
  6 35  1  0  0  0  0
  7  8  1  0  0  0  0
  7 31  2  0  0  0  0
  8 13  1  0  0  0  0
  8  9  2  0  0  0  0
  9 10  1  0  0  0  0
  9 11  1  0  0  0  0
 10 46  1  0  0  0  0
 11 12  1  0  0  0  0
 11 22  1  0  0  0  0
 11 36  1  0  0  0  0
 12 13  1  0  0  0  0
 12 14  1  0  0  0  0
 13 37  1  0  0  0  0
 13 38  1  0  0  0  0
 14 15  2  0  0  0  0
 14 16  1  0  0  0  0
 16 20  1  0  0  0  0
 16 17  2  0  0  0  0
 17 18  1  0  0  0  0
 17 39  1  0  0  0  0
 18 19  2  0  0  0  0
 18 40  1  0  0  0  0
 19 20  1  0  0  0  0
 19 21  1  0  0  0  0
 22 27  2  0  0  0  0
 22 23  1  0  0  0  0
 23 24  2  0  0  0  0
 23 41  1  0  0  0  0
 24 25  1  0  0  0  0
 24 42  1  0  0  0  0
 25 30  1  0  0  0  0
 25 26  2  0  0  0  0
 26 27  1  0  0  0  0
 26 28  1  0  0  0  0
 27 43  1  0  0  0  0
 28 29  1  0  0  0  0
 29 30  1  0  0  0  0
 29 44  1  0  0  0  0
 29 45  1  0  0  0  0
M  END
$$$$
CHEMBL304389
  -OEChem-07121202283D

 54 59  0     1  0  0  0  0  0999 V2000
   -0.0178    1.4608    0.0101 C   0  0  0  0  0  0  0  0  0  0  0  0
    0.0021   -0.0041    0.0020 N   0  0  0  0  0  0  0  0  0  0  0  0
    0.0054   -0.6566   -1.1744 C   0  0  0  0  0  0  0  0  0  0  0  0
   -0.0086   -0.0384   -2.2231 O   0  0  0  0  0  0  0  0  0  0  0  0
    0.0266   -2.1195   -1.1760 C   0  0  0  0  0  0  0  0  0  0  0  0
    0.0433   -2.7825    0.0421 C   0  0  0  0  0  0  0  0  0  0  0  0
    0.0609   -4.1122   -0.2441 N   0  0  0  0  0  0  0  0  0  0  0  0
    0.0544   -4.2410   -1.6028 C   0  0  0  0  0  0  0  0  0  0  0  0
    0.0342   -3.0611   -2.1514 N   0  0  0  0  0  0  0  0  0  0  0  0
    0.0757   -4.8371    0.4003 H   0  0  0  0  0  0  0  0  0  0  0  0
    0.0688   -5.5483   -2.3523 C   0  0  0  0  0  0  0  0  0  0  0  0
   -1.1004   -5.5958   -3.3019 C   0  0  0  0  0  0  0  0  0  0  0  0
   -2.3120   -6.1109   -2.8779 C   0  0  0  0  0  0  0  0  0  0  0  0
   -3.3861   -6.1569   -3.7434 C   0  0  0  0  0  0  0  0  0  0  0  0
   -3.2482   -5.6831   -5.0465 C   0  0  0  0  0  0  0  0  0  0  0  0
   -2.0254   -5.1653   -5.4683 C   0  0  0  0  0  0  0  0  0  0  0  0
   -0.9595   -5.1190   -4.5927 C   0  0  0  0  0  0  0  0  0  0  0  0
   -4.3994   -5.7304   -5.9817 C   0  0  0  0  0  0  0  0  0  0  0  0
   -5.6237   -6.2433   -5.5582 C   0  0  0  0  0  0  0  0  0  0  0  0
   -6.6912   -6.2844   -6.4321 C   0  0  0  0  0  0  0  0  0  0  0  0
   -6.5471   -5.8181   -7.7263 C   0  0  0  0  0  0  0  0  0  0  0  0
   -5.3339   -5.3082   -8.1521 C   0  0  0  0  0  0  0  0  0  0  0  0
   -4.2615   -5.2566   -7.2848 C   0  0  0  0  0  0  0  0  0  0  0  0
    0.0392   -2.0608    1.2171 N   0  0  0  0  0  0  0  0  0  0  0  0
    0.0228   -0.6900    1.2075 C   0  0  0  0  0  0  0  0  0  0  0  0
    0.0234   -0.1690    2.4049 N   0  3  0  0  0  0  0  0  0  0  0  0
    0.0512   -1.2158    3.4291 C   0  0  1  0  0  0  0  0  0  0  0  0
   -0.8090   -1.1564    4.0959 H   0  0  0  0  0  0  0  0  0  0  0  0
    0.0527   -2.5299    2.6141 C   0  0  2  0  0  0  0  0  0  0  0  0
   -0.7982   -3.1714    2.8434 H   0  0  0  0  0  0  0  0  0  0  0  0
    1.4050   -3.2098    2.9065 C   0  0  0  0  0  0  0  0  0  0  0  0
    2.3282   -2.0502    3.3548 C   0  0  0  0  0  0  0  0  0  0  0  0
    1.3840   -1.1431    4.2016 C   0  0  0  0  0  0  0  0  0  0  0  0
    1.0048    1.8381    0.0023 H   0  0  0  0  0  0  0  0  0  0  0  0
   -0.5450    1.8219   -0.8730 H   0  0  0  0  0  0  0  0  0  0  0  0
   -0.5280    1.8123    0.9069 H   0  0  0  0  0  0  0  0  0  0  0  0
    0.9981   -5.6339   -2.9155 H   0  0  0  0  0  0  0  0  0  0  0  0
   -0.0043   -6.3738   -1.6443 H   0  0  0  0  0  0  0  0  0  0  0  0
   -2.4177   -6.4782   -1.8677 H   0  0  0  0  0  0  0  0  0  0  0  0
   -4.3316   -6.5596   -3.4113 H   0  0  0  0  0  0  0  0  0  0  0  0
   -1.9130   -4.7971   -6.4774 H   0  0  0  0  0  0  0  0  0  0  0  0
   -0.0126   -4.7134   -4.9172 H   0  0  0  0  0  0  0  0  0  0  0  0
   -5.7371   -6.6084   -4.5481 H   0  0  0  0  0  0  0  0  0  0  0  0
   -7.6406   -6.6818   -6.1049 H   0  0  0  0  0  0  0  0  0  0  0  0
   -7.3849   -5.8524   -8.4070 H   0  0  0  0  0  0  0  0  0  0  0  0
   -5.2267   -4.9457   -9.1638 H   0  0  0  0  0  0  0  0  0  0  0  0
   -3.3159   -4.8542   -7.6169 H   0  0  0  0  0  0  0  0  0  0  0  0
    1.2979   -3.9426    3.7062 H   0  0  0  0  0  0  0  0  0  0  0  0
    1.7966   -3.6821    2.0056 H   0  0  0  0  0  0  0  0  0  0  0  0
    3.1471   -2.4240    3.9694 H   0  0  0  0  0  0  0  0  0  0  0  0
    2.7094   -1.5042    2.4919 H   0  0  0  0  0  0  0  0  0  0  0  0
    1.7438   -0.1152    4.2454 H   0  0  0  0  0  0  0  0  0  0  0  0
    1.2652   -1.5496    5.2060 H   0  0  0  0  0  0  0  0  0  0  0  0
    0.0076    0.7828    2.5910 H   0  0  0  0  0  0  0  0  0  0  0  0
  1  2  1  0  0  0  0
  1 34  1  0  0  0  0
  1 35  1  0  0  0  0
  1 36  1  0  0  0  0
  2 25  1  0  0  0  0
  2  3  1  0  0  0  0
  3  4  2  0  0  0  0
  3  5  1  0  0  0  0
  5  9  1  0  0  0  0
  5  6  2  0  0  0  0
  6 24  1  0  0  0  0
  6  7  1  0  0  0  0
  7  8  1  0  0  0  0
  7 10  1  0  0  0  0
  8 11  1  0  0  0  0
  8  9  2  0  0  0  0
 11 12  1  0  0  0  0
 11 37  1  0  0  0  0
 11 38  1  0  0  0  0
 12 17  2  0  0  0  0
 12 13  1  0  0  0  0
 13 14  2  0  0  0  0
 13 39  1  0  0  0  0
 14 15  1  0  0  0  0
 14 40  1  0  0  0  0
 15 16  2  0  0  0  0
 15 18  1  0  0  0  0
 16 17  1  0  0  0  0
 16 41  1  0  0  0  0
 17 42  1  0  0  0  0
 18 23  2  0  0  0  0
 18 19  1  0  0  0  0
 19 20  2  0  0  0  0
 19 43  1  0  0  0  0
 20 21  1  0  0  0  0
 20 44  1  0  0  0  0
 21 22  2  0  0  0  0
 21 45  1  0  0  0  0
 22 23  1  0  0  0  0
 22 46  1  0  0  0  0
 23 47  1  0  0  0  0
 24 29  1  0  0  0  0
 24 25  1  0  0  0  0
 25 26  2  0  0  0  0
 26 27  1  0  0  0  0
 26 54  1  0  0  0  0
 27 28  1  0  0  0  0
 27 33  1  0  0  0  0
 27 29  1  0  0  0  0
 29 30  1  0  0  0  0
 29 31  1  0  0  0  0
 31 32  1  0  0  0  0
 31 48  1  0  0  0  0
 31 49  1  0  0  0  0
 32 33  1  0  0  0  0
 32 50  1  0  0  0  0
 32 51  1  0  0  0  0
 33 52  1  0  0  0  0
 33 53  1  0  0  0  0
M  CHG  1  26   1
M  END
$$$$
CHEMBL304389
  -OEChem-07121202283D

 54 59  0     1  0  0  0  0  0999 V2000
   -0.0178    1.4608    0.0101 C   0  0  0  0  0  0  0  0  0  0  0  0
    0.0021   -0.0041    0.0020 N   0  0  0  0  0  0  0  0  0  0  0  0
    0.0054   -0.6573   -1.1733 C   0  0  0  0  0  0  0  0  0  0  0  0
   -0.0083   -0.0326   -2.2187 O   0  0  0  0  0  0  0  0  0  0  0  0
    0.0253   -2.0678   -1.1930 C   0  0  0  0  0  0  0  0  0  0  0  0
    0.0428   -2.7648    0.0060 C   0  0  0  0  0  0  0  0  0  0  0  0
    0.0601   -4.0673   -0.2928 N   0  0  0  0  0  0  0  0  0  0  0  0
    0.0542   -4.2242   -1.5919 C   0  0  0  0  0  0  0  0  0  0  0  0
    0.0329   -3.0197   -2.1947 N   0  0  0  0  0  0  0  0  0  0  0  0
    0.0240   -2.8524   -3.1501 H   0  0  0  0  0  0  0  0  0  0  0  0
    0.0695   -5.5513   -2.3056 C   0  0  0  0  0  0  0  0  0  0  0  0
    1.2482   -6.3625   -1.8328 C   0  0  0  0  0  0  0  0  0  0  0  0
    2.4646   -6.2538   -2.4824 C   0  0  0  0  0  0  0  0  0  0  0  0
    3.5474   -6.9944   -2.0535 C   0  0  0  0  0  0  0  0  0  0  0  0
    3.4137   -7.8526   -0.9640 C   0  0  0  0  0  0  0  0  0  0  0  0
    2.1861   -7.9581   -0.3134 C   0  0  0  0  0  0  0  0  0  0  0  0
    1.1114   -7.2087   -0.7472 C   0  0  0  0  0  0  0  0  0  0  0  0
    4.5742   -8.6517   -0.4987 C   0  0  0  0  0  0  0  0  0  0  0  0
    5.8032   -8.5422   -1.1461 C   0  0  0  0  0  0  0  0  0  0  0  0
    6.8795   -9.2874   -0.7088 C   0  0  0  0  0  0  0  0  0  0  0  0
    6.7396  -10.1421    0.3697 C   0  0  0  0  0  0  0  0  0  0  0  0
    5.5218  -10.2551    1.0158 C   0  0  0  0  0  0  0  0  0  0  0  0
    4.4405   -9.5099    0.5908 C   0  0  0  0  0  0  0  0  0  0  0  0
    0.0390   -2.0621    1.2023 N   0  0  0  0  0  0  0  0  0  0  0  0
    0.0228   -0.6909    1.2067 C   0  0  0  0  0  0  0  0  0  0  0  0
    0.0232   -0.1825    2.4083 N   0  3  0  0  0  0  0  0  0  0  0  0
    0.0515   -1.2406    3.4216 C   0  0  1  0  0  0  0  0  0  0  0  0
   -0.8088   -1.1891    4.0888 H   0  0  0  0  0  0  0  0  0  0  0  0
    0.0538   -2.5462    2.5925 C   0  0  2  0  0  0  0  0  0  0  0  0
   -0.7960   -3.1915    2.8149 H   0  0  0  0  0  0  0  0  0  0  0  0
    1.4070   -3.2270    2.8788 C   0  0  0  0  0  0  0  0  0  0  0  0
    2.3282   -2.0707    3.3395 C   0  0  0  0  0  0  0  0  0  0  0  0
    1.3841   -1.1747    4.1950 C   0  0  0  0  0  0  0  0  0  0  0  0
    1.0048    1.8381    0.0023 H   0  0  0  0  0  0  0  0  0  0  0  0
   -0.5450    1.8219   -0.8730 H   0  0  0  0  0  0  0  0  0  0  0  0
   -0.5280    1.8123    0.9069 H   0  0  0  0  0  0  0  0  0  0  0  0
   -0.8528   -6.0907   -2.0897 H   0  0  0  0  0  0  0  0  0  0  0  0
    0.1502   -5.3853   -3.3799 H   0  0  0  0  0  0  0  0  0  0  0  0
    2.5670   -5.5886   -3.3270 H   0  0  0  0  0  0  0  0  0  0  0  0
    4.4966   -6.9090   -2.5617 H   0  0  0  0  0  0  0  0  0  0  0  0
    2.0769   -8.6221    0.5314 H   0  0  0  0  0  0  0  0  0  0  0  0
    0.1607   -7.2861   -0.2406 H   0  0  0  0  0  0  0  0  0  0  0  0
    5.9134   -7.8757   -1.9887 H   0  0  0  0  0  0  0  0  0  0  0  0
    7.8325   -9.2033   -1.2098 H   0  0  0  0  0  0  0  0  0  0  0  0
    7.5843  -10.7237    0.7084 H   0  0  0  0  0  0  0  0  0  0  0  0
    5.4180  -10.9242    1.8572 H   0  0  0  0  0  0  0  0  0  0  0  0
    3.4913   -9.5956    1.0987 H   0  0  0  0  0  0  0  0  0  0  0  0
    1.3006   -3.9681    3.6710 H   0  0  0  0  0  0  0  0  0  0  0  0
    1.7999   -3.6895    1.9734 H   0  0  0  0  0  0  0  0  0  0  0  0
    3.1475   -2.4495    3.9506 H   0  0  0  0  0  0  0  0  0  0  0  0
    2.7088   -1.5152    2.4825 H   0  0  0  0  0  0  0  0  0  0  0  0
    1.7428   -0.1468    4.2495 H   0  0  0  0  0  0  0  0  0  0  0  0
    1.2656   -1.5917    5.1951 H   0  0  0  0  0  0  0  0  0  0  0  0
    0.0072    0.7673    2.6043 H   0  0  0  0  0  0  0  0  0  0  0  0
  1  2  1  0  0  0  0
  1 34  1  0  0  0  0
  1 35  1  0  0  0  0
  1 36  1  0  0  0  0
  2 25  1  0  0  0  0
  2  3  1  0  0  0  0
  3  4  2  0  0  0  0
  3  5  1  0  0  0  0
  5  9  1  0  0  0  0
  5  6  2  0  0  0  0
  6  7  1  0  0  0  0
  6 24  1  0  0  0  0
  7  8  2  0  0  0  0
  8  9  1  0  0  0  0
  8 11  1  0  0  0  0
  9 10  1  0  0  0  0
 11 12  1  0  0  0  0
 11 37  1  0  0  0  0
 11 38  1  0  0  0  0
 12 17  2  0  0  0  0
 12 13  1  0  0  0  0
 13 14  2  0  0  0  0
 13 39  1  0  0  0  0
 14 15  1  0  0  0  0
 14 40  1  0  0  0  0
 15 16  2  0  0  0  0
 15 18  1  0  0  0  0
 16 17  1  0  0  0  0
 16 41  1  0  0  0  0
 17 42  1  0  0  0  0
 18 23  2  0  0  0  0
 18 19  1  0  0  0  0
 19 20  2  0  0  0  0
 19 43  1  0  0  0  0
 20 21  1  0  0  0  0
 20 44  1  0  0  0  0
 21 22  2  0  0  0  0
 21 45  1  0  0  0  0
 22 23  1  0  0  0  0
 22 46  1  0  0  0  0
 23 47  1  0  0  0  0
 24 29  1  0  0  0  0
 24 25  1  0  0  0  0
 25 26  2  0  0  0  0
 26 27  1  0  0  0  0
 26 54  1  0  0  0  0
 27 28  1  0  0  0  0
 27 33  1  0  0  0  0
 27 29  1  0  0  0  0
 29 30  1  0  0  0  0
 29 31  1  0  0  0  0
 31 32  1  0  0  0  0
 31 48  1  0  0  0  0
 31 49  1  0  0  0  0
 32 33  1  0  0  0  0
 32 50  1  0  0  0  0
 32 51  1  0  0  0  0
 33 52  1  0  0  0  0
 33 53  1  0  0  0  0
M  CHG  1  26   1
M  END
$$$$
CHEMBL24719
  -OEChem-07121202283D

 72 75  0     0  0  0  0  0  0999 V2000
   -0.0275    1.4918   -0.0064 C   0  0  0  0  0  0  0  0  0  0  0  0
    0.0052    0.0632    0.0039 O   0  0  0  0  0  0  0  0  0  0  0  0
   -1.1910   -0.5812    0.0205 C   0  0  0  0  0  0  0  0  0  0  0  0
   -2.3481    0.1431    0.0209 C   0  0  0  0  0  0  0  0  0  0  0  0
   -3.5898   -0.5158    0.0379 C   0  0  0  0  0  0  0  0  0  0  0  0
   -4.7845    0.2265    0.0383 C   0  0  0  0  0  0  0  0  0  0  0  0
   -6.0052   -0.4185    0.0556 C   0  0  0  0  0  0  0  0  0  0  0  0
   -6.0577   -1.8801    0.0731 C   0  0  0  0  0  0  0  0  0  0  0  0
   -4.8691   -2.6123    0.0722 C   0  0  0  0  0  0  0  0  0  0  0  0
   -3.6269   -1.9323    0.0543 C   0  0  0  0  0  0  0  0  0  0  0  0
   -2.4246   -2.6549    0.0531 C   0  0  0  0  0  0  0  0  0  0  0  0
   -1.2236   -1.9832    0.0312 C   0  0  0  0  0  0  0  0  0  0  0  0
   -0.0597   -2.6841    0.0254 O   0  0  0  0  0  0  0  0  0  0  0  0
   -0.1607   -4.1095    0.0369 C   0  0  0  0  0  0  0  0  0  0  0  0
   -4.9069   -4.0896    0.0902 C   0  0  0  0  0  0  0  0  0  0  0  0
   -4.4104   -4.7885    1.1925 C   0  0  0  0  0  0  0  0  0  0  0  0
   -4.4468   -6.1710    1.2069 C   0  0  0  0  0  0  0  0  0  0  0  0
   -4.9773   -6.8657    0.1239 C   0  0  0  0  0  0  0  0  0  0  0  0
   -5.4724   -6.1714   -0.9761 C   0  0  0  0  0  0  0  0  0  0  0  0
   -5.4443   -4.7888   -0.9925 C   0  0  0  0  0  0  0  0  0  0  0  0
   -5.9898   -6.8531   -2.0331 O   0  0  0  0  0  0  0  0  0  0  0  0
   -6.4800   -6.0771   -3.1283 C   0  0  0  0  0  0  0  0  0  0  0  0
   -5.0116   -8.2250    0.1403 O   0  0  0  0  0  0  0  0  0  0  0  0
   -6.1799   -8.8379    0.6895 C   0  0  0  0  0  0  0  0  0  0  0  0
   -3.9634   -6.8522    2.2802 O   0  0  0  0  0  0  0  0  0  0  0  0
   -3.4331   -6.0757    3.3562 C   0  0  0  0  0  0  0  0  0  0  0  0
   -7.3549   -2.5742    0.0921 C   0  0  0  0  0  0  0  0  0  0  0  0
   -7.8995   -2.8732   -0.9526 O   0  0  0  0  0  0  0  0  0  0  0  0
   -7.9394   -2.8785    1.2682 O   0  0  0  0  0  0  0  0  0  0  0  0
   -9.1981   -3.5526    1.2118 C   0  0  0  0  0  0  0  0  0  0  0  0
   -7.2562    0.3663    0.0568 C   0  0  0  0  0  0  0  0  0  0  0  0
   -8.0930    0.1748    0.9177 O   0  0  0  0  0  0  0  0  0  0  0  0
   -7.4701    1.2948   -0.8963 N   0  0  0  0  0  0  0  0  0  0  0  0
   -6.5321    1.4473   -2.0169 C   0  0  0  0  0  0  0  0  0  0  0  0
   -7.3148    1.3577   -3.3307 C   0  0  0  0  0  0  0  0  0  0  0  0
   -8.4484    2.3858   -3.3156 C   0  0  0  0  0  0  0  0  0  0  0  0
   -9.4047    2.0762   -2.1617 C   0  0  0  0  0  0  0  0  0  0  0  0
   -8.6490    2.1698   -0.8378 C   0  0  0  0  0  0  0  0  0  0  0  0
   -9.1607    2.3271   -4.5531 O   0  0  0  0  0  0  0  0  0  0  0  0
    0.9915    1.8785   -0.0193 H   0  0  0  0  0  0  0  0  0  0  0  0
   -0.5583    1.8367   -0.8937 H   0  0  0  0  0  0  0  0  0  0  0  0
   -0.5408    1.8499    0.8861 H   0  0  0  0  0  0  0  0  0  0  0  0
   -2.3097    1.2223    0.0084 H   0  0  0  0  0  0  0  0  0  0  0  0
   -4.7468    1.3058    0.0254 H   0  0  0  0  0  0  0  0  0  0  0  0
   -2.4414   -3.7347    0.0658 H   0  0  0  0  0  0  0  0  0  0  0  0
   -0.7074   -4.4422   -0.8455 H   0  0  0  0  0  0  0  0  0  0  0  0
    0.8386   -4.5447    0.0307 H   0  0  0  0  0  0  0  0  0  0  0  0
   -0.6905   -4.4289    0.9344 H   0  0  0  0  0  0  0  0  0  0  0  0
   -3.9980   -4.2499    2.0329 H   0  0  0  0  0  0  0  0  0  0  0  0
   -5.8330   -4.2504   -1.8443 H   0  0  0  0  0  0  0  0  0  0  0  0
   -6.8638   -6.7422   -3.9019 H   0  0  0  0  0  0  0  0  0  0  0  0
   -7.2804   -5.4237   -2.7811 H   0  0  0  0  0  0  0  0  0  0  0  0
   -5.6699   -5.4734   -3.5373 H   0  0  0  0  0  0  0  0  0  0  0  0
   -6.2978   -8.5294    1.7283 H   0  0  0  0  0  0  0  0  0  0  0  0
   -7.0550   -8.5298    0.1174 H   0  0  0  0  0  0  0  0  0  0  0  0
   -6.0779   -9.9221    0.6418 H   0  0  0  0  0  0  0  0  0  0  0  0
   -4.2112   -5.4220    3.7505 H   0  0  0  0  0  0  0  0  0  0  0  0
   -3.0826   -6.7406    4.1457 H   0  0  0  0  0  0  0  0  0  0  0  0
   -2.6010   -5.4724    2.9933 H   0  0  0  0  0  0  0  0  0  0  0  0
   -9.5570   -3.7374    2.2243 H   0  0  0  0  0  0  0  0  0  0  0  0
   -9.9187   -2.9326    0.6784 H   0  0  0  0  0  0  0  0  0  0  0  0
   -9.0788   -4.5020    0.6897 H   0  0  0  0  0  0  0  0  0  0  0  0
   -6.0386    2.4169   -1.9509 H   0  0  0  0  0  0  0  0  0  0  0  0
   -5.7871    0.6525   -1.9804 H   0  0  0  0  0  0  0  0  0  0  0  0
   -6.6469    1.5648   -4.1669 H   0  0  0  0  0  0  0  0  0  0  0  0
   -7.7328    0.3568   -3.4377 H   0  0  0  0  0  0  0  0  0  0  0  0
   -8.0314    3.3842   -3.1838 H   0  0  0  0  0  0  0  0  0  0  0  0
  -10.2244    2.7947   -2.1657 H   0  0  0  0  0  0  0  0  0  0  0  0
   -9.8031    1.0685   -2.2796 H   0  0  0  0  0  0  0  0  0  0  0  0
   -9.3002    1.8516   -0.0237 H   0  0  0  0  0  0  0  0  0  0  0  0
   -8.3319    3.1996   -0.6736 H   0  0  0  0  0  0  0  0  0  0  0  0
   -9.8952    2.9532   -4.6141 H   0  0  0  0  0  0  0  0  0  0  0  0
  1  2  1  0  0  0  0
  1 40  1  0  0  0  0
  1 41  1  0  0  0  0
  1 42  1  0  0  0  0
  2  3  1  0  0  0  0
  3 12  2  0  0  0  0
  3  4  1  0  0  0  0
  4  5  2  0  0  0  0
  4 43  1  0  0  0  0
  5 10  1  0  0  0  0
  5  6  1  0  0  0  0
  6  7  2  0  0  0  0
  6 44  1  0  0  0  0
  7  8  1  0  0  0  0
  7 31  1  0  0  0  0
  8  9  2  0  0  0  0
  8 27  1  0  0  0  0
  9 10  1  0  0  0  0
  9 15  1  0  0  0  0
 10 11  2  0  0  0  0
 11 12  1  0  0  0  0
 11 45  1  0  0  0  0
 12 13  1  0  0  0  0
 13 14  1  0  0  0  0
 14 46  1  0  0  0  0
 14 47  1  0  0  0  0
 14 48  1  0  0  0  0
 15 20  2  0  0  0  0
 15 16  1  0  0  0  0
 16 17  2  0  0  0  0
 16 49  1  0  0  0  0
 17 18  1  0  0  0  0
 17 25  1  0  0  0  0
 18 19  2  0  0  0  0
 18 23  1  0  0  0  0
 19 20  1  0  0  0  0
 19 21  1  0  0  0  0
 20 50  1  0  0  0  0
 21 22  1  0  0  0  0
 22 51  1  0  0  0  0
 22 52  1  0  0  0  0
 22 53  1  0  0  0  0
 23 24  1  0  0  0  0
 24 54  1  0  0  0  0
 24 55  1  0  0  0  0
 24 56  1  0  0  0  0
 25 26  1  0  0  0  0
 26 57  1  0  0  0  0
 26 58  1  0  0  0  0
 26 59  1  0  0  0  0
 27 28  2  0  0  0  0
 27 29  1  0  0  0  0
 29 30  1  0  0  0  0
 30 60  1  0  0  0  0
 30 61  1  0  0  0  0
 30 62  1  0  0  0  0
 31 32  2  0  0  0  0
 31 33  1  0  0  0  0
 33 38  1  0  0  0  0
 33 34  1  0  0  0  0
 34 35  1  0  0  0  0
 34 63  1  0  0  0  0
 34 64  1  0  0  0  0
 35 36  1  0  0  0  0
 35 65  1  0  0  0  0
 35 66  1  0  0  0  0
 36 37  1  0  0  0  0
 36 39  1  0  0  0  0
 36 67  1  0  0  0  0
 37 38  1  0  0  0  0
 37 68  1  0  0  0  0
 37 69  1  0  0  0  0
 38 70  1  0  0  0  0
 38 71  1  0  0  0  0
 39 72  1  0  0  0  0
M  END
$$$$
CHEMBL33518
  -OEChem-07121202283D

 73 80  0     1  0  0  0  0  0999 V2000
   -0.2374    1.1659    0.2459 C   0  0  0  0  0  0  0  0  0  0  0  0
    0.8882    1.9729    0.2738 C   0  0  0  0  0  0  0  0  0  0  0  0
    2.1706    1.4540    0.2285 C   0  0  0  0  0  0  0  0  0  0  0  0
    2.2880    0.0677    0.1521 C   0  0  0  0  0  0  0  0  0  0  0  0
    1.1318   -0.7537    0.1227 C   0  0  0  0  0  0  0  0  0  0  0  0
   -0.1522   -0.2024    0.1707 C   0  0  0  0  0  0  0  0  0  0  0  0
    1.6121   -2.1181    0.0402 C   0  0  0  0  0  0  0  0  0  0  0  0
    2.9614   -2.0616    0.0242 C   0  0  0  0  0  0  0  0  0  0  0  0
    3.3740   -0.7575    0.0940 N   0  0  0  0  0  0  0  0  0  0  0  0
    4.2987   -0.4643    0.1011 H   0  0  0  0  0  0  0  0  0  0  0  0
    3.8472   -3.2835   -0.0649 C   0  0  2  0  0  0  0  0  0  0  0  0
    4.3051   -3.3376   -1.0526 H   0  0  0  0  0  0  0  0  0  0  0  0
    2.9920   -4.4687    0.1577 N   0  0  0  0  0  0  0  0  0  0  0  0
    1.7051   -4.5223   -0.5346 C   0  0  2  0  0  0  0  0  0  0  0  0
    1.8731   -4.3771   -1.6017 H   0  0  0  0  0  0  0  0  0  0  0  0
    0.8064   -3.3907   -0.0162 C   0  0  0  0  0  0  0  0  0  0  0  0
    1.0101   -5.8294   -0.3288 C   0  0  0  0  0  0  0  0  0  0  0  0
   -0.0244   -6.0235   -0.9313 O   0  0  0  0  0  0  0  0  0  0  0  0
    1.4547   -6.7945    0.4737 N   0  0  0  0  0  0  0  0  0  0  0  0
    2.6795   -6.6995    1.2504 C   0  0  0  0  0  0  0  0  0  0  0  0
    3.4213   -5.4330    0.9745 C   0  0  0  0  0  0  0  0  0  0  0  0
    4.4727   -5.2575    1.5530 O   0  0  0  0  0  0  0  0  0  0  0  0
    0.6634   -8.0228    0.5803 C   0  0  2  0  0  0  0  0  0  0  0  0
   -0.2290   -7.9523   -0.0416 H   0  0  0  0  0  0  0  0  0  0  0  0
    0.2720   -8.2829    2.0531 C   0  0  0  0  0  0  0  0  0  0  0  0
    0.4185   -9.8197    2.1843 C   0  0  0  0  0  0  0  0  0  0  0  0
    1.6128  -10.1194    1.3536 N   0  3  2  0  0  0  0  0  0  0  0  0
    1.5090   -9.2411    0.1653 C   0  0  0  0  0  0  0  0  0  0  0  0
    1.6027  -11.5296    0.9421 C   0  0  0  0  0  0  0  0  0  0  0  0
    1.7799  -12.4213    2.1727 C   0  0  0  0  0  0  0  0  0  0  0  0
    1.7695  -13.8679    1.7505 C   0  0  0  0  0  0  0  0  0  0  0  0
    0.5776  -14.5744    1.6945 C   0  0  0  0  0  0  0  0  0  0  0  0
    0.6160  -15.9030    1.3008 C   0  0  0  0  0  0  0  0  0  0  0  0
    1.8325  -16.4754    0.9793 C   0  0  0  0  0  0  0  0  0  0  0  0
    2.9465  -15.7730    1.0444 N   0  0  0  0  0  0  0  0  0  0  0  0
    2.9469  -14.5055    1.4089 C   0  0  0  0  0  0  0  0  0  0  0  0
    4.9185   -3.2175    0.9929 C   0  0  0  0  0  0  0  0  0  0  0  0
    6.2447   -3.3922    0.6433 C   0  0  0  0  0  0  0  0  0  0  0  0
    7.2311   -3.3320    1.6099 C   0  0  0  0  0  0  0  0  0  0  0  0
    6.8923   -3.0967    2.9326 C   0  0  0  0  0  0  0  0  0  0  0  0
    5.5564   -2.9208    3.2847 C   0  0  0  0  0  0  0  0  0  0  0  0
    4.5737   -2.9767    2.3097 C   0  0  0  0  0  0  0  0  0  0  0  0
    5.4847   -2.7062    4.6308 O   0  0  0  0  0  0  0  0  0  0  0  0
    6.7454   -3.1578    5.1598 C   0  0  0  0  0  0  0  0  0  0  0  0
    7.6575   -2.9923    4.0581 O   0  0  0  0  0  0  0  0  0  0  0  0
   -1.2129    1.6275    0.2892 H   0  0  0  0  0  0  0  0  0  0  0  0
    0.7608    3.0438    0.3326 H   0  0  0  0  0  0  0  0  0  0  0  0
    3.0401    2.0942    0.2509 H   0  0  0  0  0  0  0  0  0  0  0  0
   -1.0354   -0.8236    0.1495 H   0  0  0  0  0  0  0  0  0  0  0  0
    0.4453   -3.6391    0.9818 H   0  0  0  0  0  0  0  0  0  0  0  0
   -0.0396   -3.2579   -0.6905 H   0  0  0  0  0  0  0  0  0  0  0  0
    2.4316   -6.7519    2.3105 H   0  0  0  0  0  0  0  0  0  0  0  0
    3.3254   -7.5403    0.9974 H   0  0  0  0  0  0  0  0  0  0  0  0
    0.9559   -7.7710    2.7301 H   0  0  0  0  0  0  0  0  0  0  0  0
   -0.7575   -7.9764    2.2385 H   0  0  0  0  0  0  0  0  0  0  0  0
    0.5914  -10.1024    3.2227 H   0  0  0  0  0  0  0  0  0  0  0  0
   -0.4622  -10.3254    1.7884 H   0  0  0  0  0  0  0  0  0  0  0  0
    1.0187   -9.7732   -0.6498 H   0  0  0  0  0  0  0  0  0  0  0  0
    2.5021   -8.9156   -0.1444 H   0  0  0  0  0  0  0  0  0  0  0  0
    0.6528  -11.7605    0.4598 H   0  0  0  0  0  0  0  0  0  0  0  0
    2.4187  -11.7097    0.2423 H   0  0  0  0  0  0  0  0  0  0  0  0
    2.7298  -12.1903    2.6549 H   0  0  0  0  0  0  0  0  0  0  0  0
    0.9639  -12.2411    2.8725 H   0  0  0  0  0  0  0  0  0  0  0  0
   -0.3583  -14.1009    1.9519 H   0  0  0  0  0  0  0  0  0  0  0  0
   -0.2930  -16.4837    1.2462 H   0  0  0  0  0  0  0  0  0  0  0  0
    1.8709  -17.5099    0.6717 H   0  0  0  0  0  0  0  0  0  0  0  0
    3.8788  -13.9609    1.4452 H   0  0  0  0  0  0  0  0  0  0  0  0
    6.5106   -3.5765   -0.3871 H   0  0  0  0  0  0  0  0  0  0  0  0
    8.2662   -3.4689    1.3340 H   0  0  0  0  0  0  0  0  0  0  0  0
    3.5373   -2.8361    2.5792 H   0  0  0  0  0  0  0  0  0  0  0  0
    7.0495   -2.5402    6.0049 H   0  0  0  0  0  0  0  0  0  0  0  0
    6.6845   -4.2060    5.4525 H   0  0  0  0  0  0  0  0  0  0  0  0
    2.4555   -9.9118    1.8681 H   0  0  0  0  0  0  0  0  0  0  0  0
  1  6  2  0  0  0  0
  1  2  1  0  0  0  0
  1 46  1  0  0  0  0
  2  3  2  0  0  0  0
  2 47  1  0  0  0  0
  3  4  1  0  0  0  0
  3 48  1  0  0  0  0
  4  9  1  0  0  0  0
  4  5  2  0  0  0  0
  5  6  1  0  0  0  0
  5  7  1  0  0  0  0
  6 49  1  0  0  0  0
  7 16  1  0  0  0  0
  7  8  2  0  0  0  0
  8  9  1  0  0  0  0
  8 11  1  0  0  0  0
  9 10  1  0  0  0  0
 11 12  1  0  0  0  0
 11 13  1  0  0  0  0
 11 37  1  0  0  0  0
 13 21  1  0  0  0  0
 13 14  1  0  0  0  0
 14 15  1  0  0  0  0
 14 16  1  0  0  0  0
 14 17  1  0  0  0  0
 16 50  1  0  0  0  0
 16 51  1  0  0  0  0
 17 18  2  0  0  0  0
 17 19  1  0  0  0  0
 19 20  1  0  0  0  0
 19 23  1  0  0  0  0
 20 21  1  0  0  0  0
 20 52  1  0  0  0  0
 20 53  1  0  0  0  0
 21 22  2  0  0  0  0
 23 24  1  0  0  0  0
 23 28  1  0  0  0  0
 23 25  1  0  0  0  0
 25 26  1  0  0  0  0
 25 54  1  0  0  0  0
 25 55  1  0  0  0  0
 26 27  1  0  0  0  0
 26 56  1  0  0  0  0
 26 57  1  0  0  0  0
 27 28  1  0  0  0  0
 27 29  1  0  0  0  0
 27 73  1  0  0  0  0
 28 58  1  0  0  0  0
 28 59  1  0  0  0  0
 29 30  1  0  0  0  0
 29 60  1  0  0  0  0
 29 61  1  0  0  0  0
 30 31  1  0  0  0  0
 30 62  1  0  0  0  0
 30 63  1  0  0  0  0
 31 36  2  0  0  0  0
 31 32  1  0  0  0  0
 32 33  2  0  0  0  0
 32 64  1  0  0  0  0
 33 34  1  0  0  0  0
 33 65  1  0  0  0  0
 34 35  2  0  0  0  0
 34 66  1  0  0  0  0
 35 36  1  0  0  0  0
 36 67  1  0  0  0  0
 37 42  2  0  0  0  0
 37 38  1  0  0  0  0
 38 39  2  0  0  0  0
 38 68  1  0  0  0  0
 39 40  1  0  0  0  0
 39 69  1  0  0  0  0
 40 45  1  0  0  0  0
 40 41  2  0  0  0  0
 41 42  1  0  0  0  0
 41 43  1  0  0  0  0
 42 70  1  0  0  0  0
 43 44  1  0  0  0  0
 44 45  1  0  0  0  0
 44 71  1  0  0  0  0
 44 72  1  0  0  0  0
M  CHG  1  27   1
M  END
$$$$
CHEMBL181916
  -OEChem-07121202283D

 66 70  0     0  0  0  0  0  0999 V2000
   -0.0187    1.5258    0.0104 C   0  0  0  0  0  0  0  0  0  0  0  0
    0.0021   -0.0041    0.0020 C   0  0  0  0  0  0  0  0  0  0  0  0
    0.6709   -0.4649   -1.1737 O   0  0  0  0  0  0  0  0  0  0  0  0
    0.7767   -1.8090   -1.3360 C   0  0  0  0  0  0  0  0  0  0  0  0
    0.2436   -2.6683   -0.3879 C   0  0  0  0  0  0  0  0  0  0  0  0
    0.3523   -4.0355   -0.5540 C   0  0  0  0  0  0  0  0  0  0  0  0
    0.9927   -4.5556   -1.6655 C   0  0  0  0  0  0  0  0  0  0  0  0
    1.5280   -3.7124   -2.6172 C   0  0  0  0  0  0  0  0  0  0  0  0
    1.4188   -2.3315   -2.4632 C   0  0  0  0  0  0  0  0  0  0  0  0
    1.9862   -1.4210   -3.4858 C   0  0  0  0  0  0  0  0  0  0  0  0
    2.5917   -1.9448   -4.5593 N   0  0  0  0  0  0  0  0  0  0  0  0
    3.1134   -1.1831   -5.4995 C   0  0  0  0  0  0  0  0  0  0  0  0
    3.0340    0.2240   -5.3755 C   0  0  0  0  0  0  0  0  0  0  0  0
    3.4376    1.2440   -6.1082 N   0  0  0  0  0  0  0  0  0  0  0  0
    3.1034    2.3435   -5.5257 N   0  0  0  0  0  0  0  0  0  0  0  0
    2.4754    2.0864   -4.4022 C   0  0  0  0  0  0  0  0  0  0  0  0
    2.4098    0.7508   -4.2685 N   0  0  0  0  0  0  0  0  0  0  0  0
    1.8762   -0.1211   -3.3160 N   0  0  0  0  0  0  0  0  0  0  0  0
    1.9266    3.1051   -3.4367 C   0  0  0  0  0  0  0  0  0  0  0  0
    0.9280    4.0331   -4.1588 C   0  0  0  0  0  0  0  0  0  0  0  0
    1.1772    5.4248   -3.5262 C   0  0  0  0  0  0  0  0  0  0  0  0
    2.7145    5.4446   -3.3384 C   0  0  0  0  0  0  0  0  0  0  0  0
    3.0625    4.0025   -2.9152 C   0  0  0  0  0  0  0  0  0  0  0  0
    3.7196   -1.7414   -6.5731 O   0  5  0  0  0  0  0  0  0  0  0  0
    1.1251   -6.3012   -1.8654 S   0  0  0  0  0  0  0  0  0  0  0  0
    2.2446   -6.5295   -2.7104 O   0  0  0  0  0  0  0  0  0  0  0  0
    1.0233   -6.8676   -0.5661 O   0  0  0  0  0  0  0  0  0  0  0  0
   -0.2117   -6.8007   -2.7055 N   0  0  0  0  0  0  0  0  0  0  0  0
   -1.4420   -7.1940   -2.0021 C   0  0  0  0  0  0  0  0  0  0  0  0
   -2.6195   -6.4295   -2.6163 C   0  0  0  0  0  0  0  0  0  0  0  0
   -2.6373   -6.6487   -4.0687 N   0  0  0  0  0  0  0  0  0  0  0  0
   -1.4265   -6.1113   -4.7036 C   0  0  0  0  0  0  0  0  0  0  0  0
   -0.2021   -6.8570   -4.1752 C   0  0  0  0  0  0  0  0  0  0  0  0
   -3.8473   -6.0752   -4.6729 C   0  0  0  0  0  0  0  0  0  0  0  0
   -3.9567   -6.5332   -6.1286 C   0  0  0  0  0  0  0  0  0  0  0  0
   -4.1482   -7.9487   -6.1695 O   0  0  0  0  0  0  0  0  0  0  0  0
    1.0039    1.9031    0.0027 H   0  0  0  0  0  0  0  0  0  0  0  0
   -0.5459    1.8868   -0.8726 H   0  0  0  0  0  0  0  0  0  0  0  0
   -0.5289    1.8773    0.9072 H   0  0  0  0  0  0  0  0  0  0  0  0
    0.5293   -0.3651    0.8851 H   0  0  0  0  0  0  0  0  0  0  0  0
   -1.0205   -0.3814    0.0098 H   0  0  0  0  0  0  0  0  0  0  0  0
   -0.2569   -2.2687    0.4817 H   0  0  0  0  0  0  0  0  0  0  0  0
   -0.0641   -4.7017    0.1871 H   0  0  0  0  0  0  0  0  0  0  0  0
    2.0275   -4.1219   -3.4827 H   0  0  0  0  0  0  0  0  0  0  0  0
    1.4352    2.6026   -2.6036 H   0  0  0  0  0  0  0  0  0  0  0  0
    1.1350    4.0577   -5.2286 H   0  0  0  0  0  0  0  0  0  0  0  0
   -0.0961    3.7083   -3.9748 H   0  0  0  0  0  0  0  0  0  0  0  0
    0.8604    6.2188   -4.2024 H   0  0  0  0  0  0  0  0  0  0  0  0
    0.6695    5.5089   -2.5653 H   0  0  0  0  0  0  0  0  0  0  0  0
    3.2101    5.6971   -4.2758 H   0  0  0  0  0  0  0  0  0  0  0  0
    2.9942    6.1498   -2.5558 H   0  0  0  0  0  0  0  0  0  0  0  0
    3.1218    3.9362   -1.8288 H   0  0  0  0  0  0  0  0  0  0  0  0
    4.0107    3.7012   -3.3603 H   0  0  0  0  0  0  0  0  0  0  0  0
   -1.6021   -8.2661   -2.1160 H   0  0  0  0  0  0  0  0  0  0  0  0
   -1.3549   -6.9443   -0.9446 H   0  0  0  0  0  0  0  0  0  0  0  0
   -3.5526   -6.7892   -2.1827 H   0  0  0  0  0  0  0  0  0  0  0  0
   -2.5089   -5.3648   -2.4105 H   0  0  0  0  0  0  0  0  0  0  0  0
   -1.4944   -6.2404   -5.7838 H   0  0  0  0  0  0  0  0  0  0  0  0
   -1.3325   -5.0511   -4.4688 H   0  0  0  0  0  0  0  0  0  0  0  0
    0.7043   -6.3846   -4.5539 H   0  0  0  0  0  0  0  0  0  0  0  0
   -0.2408   -7.8961   -4.5021 H   0  0  0  0  0  0  0  0  0  0  0  0
   -4.7241   -6.4113   -4.1194 H   0  0  0  0  0  0  0  0  0  0  0  0
   -3.7904   -4.9872   -4.6376 H   0  0  0  0  0  0  0  0  0  0  0  0
   -4.8042   -6.0381   -6.6026 H   0  0  0  0  0  0  0  0  0  0  0  0
   -3.0410   -6.2750   -6.6606 H   0  0  0  0  0  0  0  0  0  0  0  0
   -4.2261   -8.3095   -7.0633 H   0  0  0  0  0  0  0  0  0  0  0  0
  1  2  1  0  0  0  0
  1 37  1  0  0  0  0
  1 38  1  0  0  0  0
  1 39  1  0  0  0  0
  2  3  1  0  0  0  0
  2 40  1  0  0  0  0
  2 41  1  0  0  0  0
  3  4  1  0  0  0  0
  4  9  2  0  0  0  0
  4  5  1  0  0  0  0
  5  6  2  0  0  0  0
  5 42  1  0  0  0  0
  6  7  1  0  0  0  0
  6 43  1  0  0  0  0
  7  8  2  0  0  0  0
  7 25  1  0  0  0  0
  8  9  1  0  0  0  0
  8 44  1  0  0  0  0
  9 10  1  0  0  0  0
 10 18  2  0  0  0  0
 10 11  1  0  0  0  0
 11 12  2  0  0  0  0
 12 13  1  0  0  0  0
 12 24  1  0  0  0  0
 13 17  1  0  0  0  0
 13 14  2  0  0  0  0
 14 15  1  0  0  0  0
 15 16  2  0  0  0  0
 16 17  1  0  0  0  0
 16 19  1  0  0  0  0
 17 18  1  0  0  0  0
 19 23  1  0  0  0  0
 19 20  1  0  0  0  0
 19 45  1  0  0  0  0
 20 21  1  0  0  0  0
 20 46  1  0  0  0  0
 20 47  1  0  0  0  0
 21 22  1  0  0  0  0
 21 48  1  0  0  0  0
 21 49  1  0  0  0  0
 22 23  1  0  0  0  0
 22 50  1  0  0  0  0
 22 51  1  0  0  0  0
 23 52  1  0  0  0  0
 23 53  1  0  0  0  0
 25 26  2  0  0  0  0
 25 27  2  0  0  0  0
 25 28  1  0  0  0  0
 28 33  1  0  0  0  0
 28 29  1  0  0  0  0
 29 30  1  0  0  0  0
 29 54  1  0  0  0  0
 29 55  1  0  0  0  0
 30 31  1  0  0  0  0
 30 56  1  0  0  0  0
 30 57  1  0  0  0  0
 31 32  1  0  0  0  0
 31 34  1  0  0  0  0
 32 33  1  0  0  0  0
 32 58  1  0  0  0  0
 32 59  1  0  0  0  0
 33 60  1  0  0  0  0
 33 61  1  0  0  0  0
 34 35  1  0  0  0  0
 34 62  1  0  0  0  0
 34 63  1  0  0  0  0
 35 36  1  0  0  0  0
 35 64  1  0  0  0  0
 35 65  1  0  0  0  0
 36 66  1  0  0  0  0
M  CHG  1  24  -1
M  END
$$$$
CHEMBL336003
  -OEChem-07121202283D

 53 59  0     1  0  0  0  0  0999 V2000
   -0.0165    1.3628    0.0095 C   0  0  0  0  0  0  0  0  0  0  0  0
    1.1698    2.0838    0.0021 C   0  0  0  0  0  0  0  0  0  0  0  0
    2.3862    1.4376   -0.0135 C   0  0  0  0  0  0  0  0  0  0  0  0
    2.4284    0.0458   -0.0214 C   0  0  0  0  0  0  0  0  0  0  0  0
    1.2231   -0.6777   -0.0133 C   0  0  0  0  0  0  0  0  0  0  0  0
    0.0021   -0.0041    0.0020 C   0  0  0  0  0  0  0  0  0  0  0  0
    1.2934   -2.1480   -0.0219 C   0  0  0  0  0  0  0  0  0  0  0  0
    2.5744   -2.7535   -0.0380 C   0  0  0  0  0  0  0  0  0  0  0  0
    3.6874   -1.9921   -0.0449 C   0  0  0  0  0  0  0  0  0  0  0  0
    3.6240   -0.6315   -0.0374 N   0  0  0  0  0  0  0  0  0  0  0  0
    4.9010   -2.8944   -0.0614 C   0  0  2  0  0  0  0  0  0  0  0  0
    4.4244   -4.2808   -0.0638 N   0  0  0  0  0  0  0  0  0  0  0  0
    2.9595   -4.2121   -0.0492 C   0  0  0  0  0  0  0  0  0  0  0  0
    5.1813   -5.3958   -0.0778 C   0  0  0  0  0  0  0  0  0  0  0  0
    6.3948   -5.3073   -0.0901 O   0  0  0  0  0  0  0  0  0  0  0  0
    4.5416   -6.7174   -0.0782 C   0  0  0  0  0  0  0  0  0  0  0  0
    5.2011   -7.9055   -0.0861 C   0  0  0  0  0  0  0  0  0  0  0  0
    4.1701   -8.9415   -0.0832 C   0  0  0  0  0  0  0  0  0  0  0  0
    4.1956  -10.3393   -0.0886 C   0  0  0  0  0  0  0  0  0  0  0  0
    3.0237  -11.0387   -0.0844 C   0  0  0  0  0  0  0  0  0  0  0  0
    1.8021  -10.3675   -0.0752 C   0  0  0  0  0  0  0  0  0  0  0  0
    1.7580   -8.9847   -0.0698 C   0  0  0  0  0  0  0  0  0  0  0  0
    2.9401   -8.2560   -0.0734 C   0  0  0  0  0  0  0  0  0  0  0  0
    3.2094   -6.9358   -0.0649 O   0  0  0  0  0  0  0  0  0  0  0  0
    0.6444  -11.0776   -0.0721 O   0  0  0  0  0  0  0  0  0  0  0  0
    5.7400   -2.6447    1.1653 C   0  0  0  0  0  0  0  0  0  0  0  0
    5.3847   -3.2176    2.3723 C   0  0  0  0  0  0  0  0  0  0  0  0
    6.1514   -2.9919    3.5002 C   0  0  0  0  0  0  0  0  0  0  0  0
    7.2785   -2.1899    3.4234 C   0  0  0  0  0  0  0  0  0  0  0  0
    7.6364   -1.6128    2.2075 C   0  0  0  0  0  0  0  0  0  0  0  0
    6.8665   -1.8480    1.0799 C   0  0  0  0  0  0  0  0  0  0  0  0
    8.7708   -0.8762    2.3914 O   0  0  0  0  0  0  0  0  0  0  0  0
    8.8731   -0.6764    3.8137 C   0  0  0  0  0  0  0  0  0  0  0  0
    8.1887   -1.8150    4.3690 O   0  0  0  0  0  0  0  0  0  0  0  0
    0.2786   -2.8253   -0.0151 O   0  0  0  0  0  0  0  0  0  0  0  0
   -0.9613    1.8858    0.0259 H   0  0  0  0  0  0  0  0  0  0  0  0
    1.1386    3.1633    0.0082 H   0  0  0  0  0  0  0  0  0  0  0  0
    3.3032    2.0080   -0.0199 H   0  0  0  0  0  0  0  0  0  0  0  0
   -0.9242   -0.5595    0.0083 H   0  0  0  0  0  0  0  0  0  0  0  0
    5.4905   -2.7047   -0.9584 H   0  0  0  0  0  0  0  0  0  0  0  0
    2.5749   -4.7034    0.8446 H   0  0  0  0  0  0  0  0  0  0  0  0
    2.5575   -4.6942   -0.9403 H   0  0  0  0  0  0  0  0  0  0  0  0
    6.2708   -8.0542   -0.0935 H   0  0  0  0  0  0  0  0  0  0  0  0
    5.1396  -10.8639   -0.0964 H   0  0  0  0  0  0  0  0  0  0  0  0
    3.0430  -12.1185   -0.0886 H   0  0  0  0  0  0  0  0  0  0  0  0
    0.8067   -8.4733   -0.0630 H   0  0  0  0  0  0  0  0  0  0  0  0
    0.3138  -11.2869    0.8122 H   0  0  0  0  0  0  0  0  0  0  0  0
    4.5060   -3.8425    2.4343 H   0  0  0  0  0  0  0  0  0  0  0  0
    5.8715   -3.4407    4.4418 H   0  0  0  0  0  0  0  0  0  0  0  0
    7.1442   -1.4054    0.1348 H   0  0  0  0  0  0  0  0  0  0  0  0
    9.9177   -0.6681    4.1251 H   0  0  0  0  0  0  0  0  0  0  0  0
    8.3775    0.2490    4.1071 H   0  0  0  0  0  0  0  0  0  0  0  0
    4.4504   -0.1236   -0.0431 H   0  0  0  0  0  0  0  0  0  0  0  0
  1  6  2  0  0  0  0
  1  2  1  0  0  0  0
  1 36  1  0  0  0  0
  2  3  2  0  0  0  0
  2 37  1  0  0  0  0
  3  4  1  0  0  0  0
  3 38  1  0  0  0  0
  4 10  1  0  0  0  0
  4  5  2  0  0  0  0
  5  6  1  0  0  0  0
  5  7  1  0  0  0  0
  6 39  1  0  0  0  0
  7  8  1  0  0  0  0
  7 35  2  0  0  0  0
  8 13  1  0  0  0  0
  8  9  2  0  0  0  0
  9 10  1  0  0  0  0
  9 11  1  0  0  0  0
 10 53  1  0  0  0  0
 11 12  1  0  0  0  0
 11 26  1  0  0  0  0
 11 40  1  0  0  0  0
 12 13  1  0  0  0  0
 12 14  1  0  0  0  0
 13 41  1  0  0  0  0
 13 42  1  0  0  0  0
 14 15  2  0  0  0  0
 14 16  1  0  0  0  0
 16 24  1  0  0  0  0
 16 17  2  0  0  0  0
 17 18  1  0  0  0  0
 17 43  1  0  0  0  0
 18 23  2  0  0  0  0
 18 19  1  0  0  0  0
 19 20  2  0  0  0  0
 19 44  1  0  0  0  0
 20 21  1  0  0  0  0
 20 45  1  0  0  0  0
 21 22  2  0  0  0  0
 21 25  1  0  0  0  0
 22 23  1  0  0  0  0
 22 46  1  0  0  0  0
 23 24  1  0  0  0  0
 25 47  1  0  0  0  0
 26 31  2  0  0  0  0
 26 27  1  0  0  0  0
 27 28  2  0  0  0  0
 27 48  1  0  0  0  0
 28 29  1  0  0  0  0
 28 49  1  0  0  0  0
 29 34  1  0  0  0  0
 29 30  2  0  0  0  0
 30 31  1  0  0  0  0
 30 32  1  0  0  0  0
 31 50  1  0  0  0  0
 32 33  1  0  0  0  0
 33 34  1  0  0  0  0
 33 51  1  0  0  0  0
 33 52  1  0  0  0  0
M  END
$$$$
CHEMBL336003
  -OEChem-07121202283D

 53 59  0     1  0  0  0  0  0999 V2000
   -0.0165    1.3628    0.0095 C   0  0  0  0  0  0  0  0  0  0  0  0
    1.1698    2.0838    0.0021 C   0  0  0  0  0  0  0  0  0  0  0  0
    2.3862    1.4376   -0.0135 C   0  0  0  0  0  0  0  0  0  0  0  0
    2.4284    0.0458   -0.0214 C   0  0  0  0  0  0  0  0  0  0  0  0
    1.2231   -0.6777   -0.0133 C   0  0  0  0  0  0  0  0  0  0  0  0
    0.0021   -0.0041    0.0020 C   0  0  0  0  0  0  0  0  0  0  0  0
    1.2934   -2.1480   -0.0219 C   0  0  0  0  0  0  0  0  0  0  0  0
    2.5744   -2.7535   -0.0380 C   0  0  0  0  0  0  0  0  0  0  0  0
    3.6874   -1.9921   -0.0449 C   0  0  0  0  0  0  0  0  0  0  0  0
    3.6240   -0.6315   -0.0374 N   0  0  0  0  0  0  0  0  0  0  0  0
    4.9010   -2.8944   -0.0614 C   0  0  1  0  0  0  0  0  0  0  0  0
    4.4244   -4.2808   -0.0638 N   0  0  0  0  0  0  0  0  0  0  0  0
    2.9595   -4.2121   -0.0492 C   0  0  0  0  0  0  0  0  0  0  0  0
    5.1813   -5.3958   -0.0778 C   0  0  0  0  0  0  0  0  0  0  0  0
    6.3948   -5.3073   -0.0901 O   0  0  0  0  0  0  0  0  0  0  0  0
    4.5416   -6.7174   -0.0782 C   0  0  0  0  0  0  0  0  0  0  0  0
    5.2011   -7.9055   -0.0861 C   0  0  0  0  0  0  0  0  0  0  0  0
    4.1701   -8.9415   -0.0832 C   0  0  0  0  0  0  0  0  0  0  0  0
    4.1956  -10.3393   -0.0886 C   0  0  0  0  0  0  0  0  0  0  0  0
    3.0237  -11.0387   -0.0844 C   0  0  0  0  0  0  0  0  0  0  0  0
    1.8021  -10.3675   -0.0752 C   0  0  0  0  0  0  0  0  0  0  0  0
    1.7580   -8.9847   -0.0698 C   0  0  0  0  0  0  0  0  0  0  0  0
    2.9401   -8.2560   -0.0734 C   0  0  0  0  0  0  0  0  0  0  0  0
    3.2094   -6.9358   -0.0649 O   0  0  0  0  0  0  0  0  0  0  0  0
    0.6444  -11.0776   -0.0721 O   0  0  0  0  0  0  0  0  0  0  0  0
    5.7160   -2.6321   -1.3016 C   0  0  0  0  0  0  0  0  0  0  0  0
    5.3306   -3.1832   -2.5095 C   0  0  0  0  0  0  0  0  0  0  0  0
    6.0746   -2.9451   -3.6500 C   0  0  0  0  0  0  0  0  0  0  0  0
    7.2095   -2.1531   -3.5847 C   0  0  0  0  0  0  0  0  0  0  0  0
    7.5977   -1.5979   -2.3679 C   0  0  0  0  0  0  0  0  0  0  0  0
    6.8440   -1.8362   -1.2301 C   0  0  0  0  0  0  0  0  0  0  0  0
    8.7339   -0.8674   -2.5644 O   0  0  0  0  0  0  0  0  0  0  0  0
    9.2645   -1.3137   -3.8263 C   0  0  0  0  0  0  0  0  0  0  0  0
    8.1025   -1.7704   -4.5435 O   0  0  0  0  0  0  0  0  0  0  0  0
    0.2786   -2.8253   -0.0151 O   0  0  0  0  0  0  0  0  0  0  0  0
   -0.9613    1.8858    0.0259 H   0  0  0  0  0  0  0  0  0  0  0  0
    1.1386    3.1633    0.0082 H   0  0  0  0  0  0  0  0  0  0  0  0
    3.3032    2.0080   -0.0199 H   0  0  0  0  0  0  0  0  0  0  0  0
   -0.9242   -0.5595    0.0083 H   0  0  0  0  0  0  0  0  0  0  0  0
    5.5079   -2.7138    0.8259 H   0  0  0  0  0  0  0  0  0  0  0  0
    2.5749   -4.7034    0.8446 H   0  0  0  0  0  0  0  0  0  0  0  0
    2.5575   -4.6942   -0.9403 H   0  0  0  0  0  0  0  0  0  0  0  0
    6.2708   -8.0542   -0.0935 H   0  0  0  0  0  0  0  0  0  0  0  0
    5.1396  -10.8639   -0.0964 H   0  0  0  0  0  0  0  0  0  0  0  0
    3.0430  -12.1185   -0.0886 H   0  0  0  0  0  0  0  0  0  0  0  0
    0.8067   -8.4733   -0.0630 H   0  0  0  0  0  0  0  0  0  0  0  0
    0.3138  -11.2869    0.8122 H   0  0  0  0  0  0  0  0  0  0  0  0
    4.4467   -3.8015   -2.5622 H   0  0  0  0  0  0  0  0  0  0  0  0
    5.7713   -3.3769   -4.5923 H   0  0  0  0  0  0  0  0  0  0  0  0
    7.1401   -1.4033   -0.2860 H   0  0  0  0  0  0  0  0  0  0  0  0
    9.7409   -0.4881   -4.3550 H   0  0  0  0  0  0  0  0  0  0  0  0
    9.9690   -2.1321   -3.6777 H   0  0  0  0  0  0  0  0  0  0  0  0
    4.4504   -0.1236   -0.0431 H   0  0  0  0  0  0  0  0  0  0  0  0
  1  6  2  0  0  0  0
  1  2  1  0  0  0  0
  1 36  1  0  0  0  0
  2  3  2  0  0  0  0
  2 37  1  0  0  0  0
  3  4  1  0  0  0  0
  3 38  1  0  0  0  0
  4 10  1  0  0  0  0
  4  5  2  0  0  0  0
  5  6  1  0  0  0  0
  5  7  1  0  0  0  0
  6 39  1  0  0  0  0
  7  8  1  0  0  0  0
  7 35  2  0  0  0  0
  8 13  1  0  0  0  0
  8  9  2  0  0  0  0
  9 10  1  0  0  0  0
  9 11  1  0  0  0  0
 10 53  1  0  0  0  0
 11 12  1  0  0  0  0
 11 26  1  0  0  0  0
 11 40  1  0  0  0  0
 12 13  1  0  0  0  0
 12 14  1  0  0  0  0
 13 41  1  0  0  0  0
 13 42  1  0  0  0  0
 14 15  2  0  0  0  0
 14 16  1  0  0  0  0
 16 24  1  0  0  0  0
 16 17  2  0  0  0  0
 17 18  1  0  0  0  0
 17 43  1  0  0  0  0
 18 23  2  0  0  0  0
 18 19  1  0  0  0  0
 19 20  2  0  0  0  0
 19 44  1  0  0  0  0
 20 21  1  0  0  0  0
 20 45  1  0  0  0  0
 21 22  2  0  0  0  0
 21 25  1  0  0  0  0
 22 23  1  0  0  0  0
 22 46  1  0  0  0  0
 23 24  1  0  0  0  0
 25 47  1  0  0  0  0
 26 31  2  0  0  0  0
 26 27  1  0  0  0  0
 27 28  2  0  0  0  0
 27 48  1  0  0  0  0
 28 29  1  0  0  0  0
 28 49  1  0  0  0  0
 29 34  1  0  0  0  0
 29 30  2  0  0  0  0
 30 31  1  0  0  0  0
 30 32  1  0  0  0  0
 31 50  1  0  0  0  0
 32 33  1  0  0  0  0
 33 34  1  0  0  0  0
 33 51  1  0  0  0  0
 33 52  1  0  0  0  0
M  END
$$$$
CHEMBL72812
  -OEChem-07121202283D

 47 51  0     0  0  0  0  0  0999 V2000
   -0.0178    1.4608    0.0101 C   0  0  0  0  0  0  0  0  0  0  0  0
    0.0021   -0.0041    0.0020 N   0  0  0  0  0  0  0  0  0  0  0  0
    0.0054   -0.6571   -1.1745 C   0  0  0  0  0  0  0  0  0  0  0  0
   -0.0073   -0.0389   -2.2232 O   0  0  0  0  0  0  0  0  0  0  0  0
    0.0250   -2.1200   -1.1764 C   0  0  0  0  0  0  0  0  0  0  0  0
    0.0355   -2.7837    0.0418 C   0  0  0  0  0  0  0  0  0  0  0  0
    0.0523   -4.1134   -0.2451 N   0  0  0  0  0  0  0  0  0  0  0  0
    0.0530   -4.2414   -1.6039 C   0  0  0  0  0  0  0  0  0  0  0  0
    0.0368   -3.0612   -2.1521 N   0  0  0  0  0  0  0  0  0  0  0  0
    0.0624   -4.8386    0.3990 H   0  0  0  0  0  0  0  0  0  0  0  0
    0.0710   -5.5484   -2.3540 C   0  0  0  0  0  0  0  0  0  0  0  0
   -1.0931   -5.5950   -3.3099 C   0  0  0  0  0  0  0  0  0  0  0  0
   -2.3076   -6.1090   -2.8954 C   0  0  0  0  0  0  0  0  0  0  0  0
   -3.3754   -6.1518   -3.7722 C   0  0  0  0  0  0  0  0  0  0  0  0
   -3.2289   -5.6801   -5.0634 C   0  0  0  0  0  0  0  0  0  0  0  0
   -2.0147   -5.1653   -5.4775 C   0  0  0  0  0  0  0  0  0  0  0  0
   -0.9481   -5.1186   -4.5994 C   0  0  0  0  0  0  0  0  0  0  0  0
    0.0292   -2.0621    1.2157 N   0  0  0  0  0  0  0  0  0  0  0  0
    0.0228   -0.6898    1.2065 C   0  0  0  0  0  0  0  0  0  0  0  0
    0.0340   -0.1692    2.4081 N   0  3  0  0  0  0  0  0  0  0  0  0
    0.0541   -1.2224    3.4111 C   0  0  0  0  0  0  0  0  0  0  0  0
    0.0349   -2.5297    2.6164 C   0  0  0  0  0  0  0  0  0  0  0  0
   -1.1596   -1.1382    4.3524 C   0  0  0  0  0  0  0  0  0  0  0  0
   -0.6873   -0.1245    5.4267 C   0  0  0  0  0  0  0  0  0  0  0  0
    0.8117   -0.4394    5.6166 C   0  0  0  0  0  0  0  0  0  0  0  0
    1.2830   -1.1297    4.3217 C   0  0  0  0  0  0  0  0  0  0  0  0
    1.0048    1.8381    0.0023 H   0  0  0  0  0  0  0  0  0  0  0  0
   -0.5450    1.8219   -0.8730 H   0  0  0  0  0  0  0  0  0  0  0  0
   -0.5280    1.8123    0.9069 H   0  0  0  0  0  0  0  0  0  0  0  0
    1.0032   -5.6341   -2.9123 H   0  0  0  0  0  0  0  0  0  0  0  0
   -0.0062   -6.3743   -1.6468 H   0  0  0  0  0  0  0  0  0  0  0  0
   -2.4220   -6.4775   -1.8867 H   0  0  0  0  0  0  0  0  0  0  0  0
   -4.3240   -6.5540   -3.4487 H   0  0  0  0  0  0  0  0  0  0  0  0
   -4.0629   -5.7142   -5.7486 H   0  0  0  0  0  0  0  0  0  0  0  0
   -1.9001   -4.7971   -6.4863 H   0  0  0  0  0  0  0  0  0  0  0  0
   -0.0005   -4.7129   -4.9218 H   0  0  0  0  0  0  0  0  0  0  0  0
   -0.8621   -3.1098    2.8333 H   0  0  0  0  0  0  0  0  0  0  0  0
    0.9323   -3.1120    2.8254 H   0  0  0  0  0  0  0  0  0  0  0  0
   -2.0342   -0.7606    3.8226 H   0  0  0  0  0  0  0  0  0  0  0  0
   -1.3681   -2.1090    4.8020 H   0  0  0  0  0  0  0  0  0  0  0  0
   -0.8199    0.8972    5.0709 H   0  0  0  0  0  0  0  0  0  0  0  0
   -1.2299   -0.2775    6.3596 H   0  0  0  0  0  0  0  0  0  0  0  0
    1.3704    0.4834    5.7726 H   0  0  0  0  0  0  0  0  0  0  0  0
    0.9482   -1.1074    6.4670 H   0  0  0  0  0  0  0  0  0  0  0  0
    1.6593   -2.1280    4.5453 H   0  0  0  0  0  0  0  0  0  0  0  0
    2.0604   -0.5350    3.8420 H   0  0  0  0  0  0  0  0  0  0  0  0
    0.0299    0.7814    2.6013 H   0  0  0  0  0  0  0  0  0  0  0  0
  1  2  1  0  0  0  0
  1 27  1  0  0  0  0
  1 28  1  0  0  0  0
  1 29  1  0  0  0  0
  2 19  1  0  0  0  0
  2  3  1  0  0  0  0
  3  4  2  0  0  0  0
  3  5  1  0  0  0  0
  5  9  1  0  0  0  0
  5  6  2  0  0  0  0
  6 18  1  0  0  0  0
  6  7  1  0  0  0  0
  7  8  1  0  0  0  0
  7 10  1  0  0  0  0
  8 11  1  0  0  0  0
  8  9  2  0  0  0  0
 11 12  1  0  0  0  0
 11 30  1  0  0  0  0
 11 31  1  0  0  0  0
 12 17  2  0  0  0  0
 12 13  1  0  0  0  0
 13 14  2  0  0  0  0
 13 32  1  0  0  0  0
 14 15  1  0  0  0  0
 14 33  1  0  0  0  0
 15 16  2  0  0  0  0
 15 34  1  0  0  0  0
 16 17  1  0  0  0  0
 16 35  1  0  0  0  0
 17 36  1  0  0  0  0
 18 22  1  0  0  0  0
 18 19  1  0  0  0  0
 19 20  2  0  0  0  0
 20 21  1  0  0  0  0
 20 47  1  0  0  0  0
 21 26  1  0  0  0  0
 21 22  1  0  0  0  0
 21 23  1  0  0  0  0
 22 37  1  0  0  0  0
 22 38  1  0  0  0  0
 23 24  1  0  0  0  0
 23 39  1  0  0  0  0
 23 40  1  0  0  0  0
 24 25  1  0  0  0  0
 24 41  1  0  0  0  0
 24 42  1  0  0  0  0
 25 26  1  0  0  0  0
 25 43  1  0  0  0  0
 25 44  1  0  0  0  0
 26 45  1  0  0  0  0
 26 46  1  0  0  0  0
M  CHG  1  20   1
M  END
$$$$
CHEMBL72812
  -OEChem-07121202283D

 47 51  0     0  0  0  0  0  0999 V2000
   -0.0178    1.4608    0.0101 C   0  0  0  0  0  0  0  0  0  0  0  0
    0.0021   -0.0041    0.0020 N   0  0  0  0  0  0  0  0  0  0  0  0
    0.0054   -0.6578   -1.1733 C   0  0  0  0  0  0  0  0  0  0  0  0
   -0.0079   -0.0331   -2.2188 O   0  0  0  0  0  0  0  0  0  0  0  0
    0.0246   -2.0683   -1.1934 C   0  0  0  0  0  0  0  0  0  0  0  0
    0.0348   -2.7660    0.0057 C   0  0  0  0  0  0  0  0  0  0  0  0
    0.0516   -4.0685   -0.2939 N   0  0  0  0  0  0  0  0  0  0  0  0
    0.0537   -4.2246   -1.5930 C   0  0  0  0  0  0  0  0  0  0  0  0
    0.0375   -3.0199   -2.1953 N   0  0  0  0  0  0  0  0  0  0  0  0
    0.0350   -2.8521   -3.1507 H   0  0  0  0  0  0  0  0  0  0  0  0
    0.0723   -5.5514   -2.3073 C   0  0  0  0  0  0  0  0  0  0  0  0
    1.2474   -6.3638   -1.8275 C   0  0  0  0  0  0  0  0  0  0  0  0
    2.4683   -6.2579   -2.4672 C   0  0  0  0  0  0  0  0  0  0  0  0
    3.5462   -7.0030   -2.0271 C   0  0  0  0  0  0  0  0  0  0  0  0
    3.4034   -7.8538   -0.9470 C   0  0  0  0  0  0  0  0  0  0  0  0
    2.1828   -7.9591   -0.3067 C   0  0  0  0  0  0  0  0  0  0  0  0
    1.1060   -7.2107   -0.7442 C   0  0  0  0  0  0  0  0  0  0  0  0
    0.0284   -2.0635    1.2008 N   0  0  0  0  0  0  0  0  0  0  0  0
    0.0228   -0.6908    1.2057 C   0  0  0  0  0  0  0  0  0  0  0  0
    0.0352   -0.1826    2.4115 N   0  3  0  0  0  0  0  0  0  0  0  0
    0.0552   -1.2468    3.4034 C   0  0  0  0  0  0  0  0  0  0  0  0
    0.0340   -2.5461    2.5950 C   0  0  0  0  0  0  0  0  0  0  0  0
   -1.1578   -1.1723    4.3463 C   0  0  0  0  0  0  0  0  0  0  0  0
   -0.6844   -0.1703    5.4312 C   0  0  0  0  0  0  0  0  0  0  0  0
    0.8146   -0.4877    5.6165 C   0  0  0  0  0  0  0  0  0  0  0  0
    1.2849   -1.1641    4.3140 C   0  0  0  0  0  0  0  0  0  0  0  0
    1.0048    1.8381    0.0023 H   0  0  0  0  0  0  0  0  0  0  0  0
   -0.5450    1.8219   -0.8730 H   0  0  0  0  0  0  0  0  0  0  0  0
   -0.5280    1.8123    0.9069 H   0  0  0  0  0  0  0  0  0  0  0  0
   -0.8517   -6.0901   -2.0974 H   0  0  0  0  0  0  0  0  0  0  0  0
    0.1599   -5.3849   -3.3810 H   0  0  0  0  0  0  0  0  0  0  0  0
    2.5799   -5.5931   -3.3111 H   0  0  0  0  0  0  0  0  0  0  0  0
    4.4998   -6.9208   -2.5273 H   0  0  0  0  0  0  0  0  0  0  0  0
    4.2453   -8.4365   -0.6035 H   0  0  0  0  0  0  0  0  0  0  0  0
    2.0711   -8.6241    0.5370 H   0  0  0  0  0  0  0  0  0  0  0  0
    0.1533   -7.2902   -0.2416 H   0  0  0  0  0  0  0  0  0  0  0  0
   -0.8628   -3.1286    2.8055 H   0  0  0  0  0  0  0  0  0  0  0  0
    0.9316   -3.1303    2.7977 H   0  0  0  0  0  0  0  0  0  0  0  0
   -2.0325   -0.7888    3.8212 H   0  0  0  0  0  0  0  0  0  0  0  0
   -1.3662   -2.1478    4.7857 H   0  0  0  0  0  0  0  0  0  0  0  0
   -0.8170    0.8552    5.0865 H   0  0  0  0  0  0  0  0  0  0  0  0
   -1.2264   -0.3332    6.3628 H   0  0  0  0  0  0  0  0  0  0  0  0
    1.3737    0.4332    5.7821 H   0  0  0  0  0  0  0  0  0  0  0  0
    0.9516   -1.1650    6.4596 H   0  0  0  0  0  0  0  0  0  0  0  0
    1.6613   -2.1647    4.5266 H   0  0  0  0  0  0  0  0  0  0  0  0
    2.0619   -0.5642    3.8401 H   0  0  0  0  0  0  0  0  0  0  0  0
    0.0318    0.7659    2.6145 H   0  0  0  0  0  0  0  0  0  0  0  0
  1  2  1  0  0  0  0
  1 27  1  0  0  0  0
  1 28  1  0  0  0  0
  1 29  1  0  0  0  0
  2 19  1  0  0  0  0
  2  3  1  0  0  0  0
  3  4  2  0  0  0  0
  3  5  1  0  0  0  0
  5  9  1  0  0  0  0
  5  6  2  0  0  0  0
  6  7  1  0  0  0  0
  6 18  1  0  0  0  0
  7  8  2  0  0  0  0
  8  9  1  0  0  0  0
  8 11  1  0  0  0  0
  9 10  1  0  0  0  0
 11 12  1  0  0  0  0
 11 30  1  0  0  0  0
 11 31  1  0  0  0  0
 12 17  2  0  0  0  0
 12 13  1  0  0  0  0
 13 14  2  0  0  0  0
 13 32  1  0  0  0  0
 14 15  1  0  0  0  0
 14 33  1  0  0  0  0
 15 16  2  0  0  0  0
 15 34  1  0  0  0  0
 16 17  1  0  0  0  0
 16 35  1  0  0  0  0
 17 36  1  0  0  0  0
 18 22  1  0  0  0  0
 18 19  1  0  0  0  0
 19 20  2  0  0  0  0
 20 21  1  0  0  0  0
 20 47  1  0  0  0  0
 21 26  1  0  0  0  0
 21 22  1  0  0  0  0
 21 23  1  0  0  0  0
 22 37  1  0  0  0  0
 22 38  1  0  0  0  0
 23 24  1  0  0  0  0
 23 39  1  0  0  0  0
 23 40  1  0  0  0  0
 24 25  1  0  0  0  0
 24 41  1  0  0  0  0
 24 42  1  0  0  0  0
 25 26  1  0  0  0  0
 25 43  1  0  0  0  0
 25 44  1  0  0  0  0
 26 45  1  0  0  0  0
 26 46  1  0  0  0  0
M  CHG  1  20   1
M  END
$$$$
CHEMBL455187
  -OEChem-07121202283D

 71 75  0     1  0  0  0  0  0999 V2000
   -0.0187    1.5258    0.0104 C   0  0  0  0  0  0  0  0  0  0  0  0
    0.0021   -0.0041    0.0020 C   0  0  0  0  0  0  0  0  0  0  0  0
    0.7309   -0.5033    1.2229 C   0  0  0  0  0  0  0  0  0  0  0  0
    2.0819   -0.7538    1.3265 C   0  0  0  0  0  0  0  0  0  0  0  0
    2.2613   -1.2171    2.7165 C   0  0  0  0  0  0  0  0  0  0  0  0
    3.6185   -1.5660    3.1301 C   0  0  0  0  0  0  0  0  0  0  0  0
    3.8781   -2.0004    4.3846 O   0  5  0  0  0  0  0  0  0  0  0  0
    4.5835   -1.4426    2.2356 N   0  0  0  0  0  0  0  0  0  0  0  0
    4.3519   -1.0168    0.9930 C   0  0  0  0  0  0  0  0  0  0  0  0
    3.1636   -0.6823    0.5368 N   0  0  0  0  0  0  0  0  0  0  0  0
    5.5044   -0.9143    0.0682 C   0  0  0  0  0  0  0  0  0  0  0  0
    5.3253   -0.4693   -1.2437 C   0  0  0  0  0  0  0  0  0  0  0  0
    6.4345   -0.3911   -2.0692 C   0  0  0  0  0  0  0  0  0  0  0  0
    7.6746   -0.7520   -1.5764 C   0  0  0  0  0  0  0  0  0  0  0  0
    7.8193   -1.1696   -0.3333 N   0  0  0  0  0  0  0  0  0  0  0  0
    6.7935   -1.2565    0.4958 C   0  0  0  0  0  0  0  0  0  0  0  0
    6.9895   -1.6848    1.7669 O   0  0  0  0  0  0  0  0  0  0  0  0
    8.3281   -2.0180    2.1400 C   0  0  2  0  0  0  0  0  0  0  0  0
    9.0272   -1.4081    1.5679 H   0  0  0  0  0  0  0  0  0  0  0  0
    8.5855   -3.4978    1.8485 C   0  0  0  0  0  0  0  0  0  0  0  0
    8.5196   -1.7552    3.6115 C   0  0  0  0  0  0  0  0  0  0  0  0
    9.3996   -0.7709    4.0207 C   0  0  0  0  0  0  0  0  0  0  0  0
    9.5685   -0.5371    5.3767 C   0  0  0  0  0  0  0  0  0  0  0  0
    8.8427   -1.3054    6.2744 C   0  0  0  0  0  0  0  0  0  0  0  0
    7.9814   -2.2718    5.7910 C   0  0  0  0  0  0  0  0  0  0  0  0
    7.8419   -2.4631    4.4935 N   0  0  0  0  0  0  0  0  0  0  0  0
    6.2664    0.1631   -3.7333 S   0  0  0  0  0  0  0  0  0  0  0  0
    7.3666   -0.3753   -4.4537 O   0  0  0  0  0  0  0  0  0  0  0  0
    4.9176   -0.0806   -4.1082 O   0  0  0  0  0  0  0  0  0  0  0  0
    6.4655    1.8070   -3.7244 N   0  0  0  0  0  0  0  0  0  0  0  0
    5.3167    2.7071   -3.5391 C   0  0  0  0  0  0  0  0  0  0  0  0
    5.6594    3.7108   -2.4333 C   0  0  0  0  0  0  0  0  0  0  0  0
    6.9165    4.3931   -2.7653 N   0  3  0  0  0  0  0  0  0  0  0  0
    8.0219    3.4266   -2.7780 C   0  0  0  0  0  0  0  0  0  0  0  0
    7.7970    2.4087   -3.8953 C   0  0  0  0  0  0  0  0  0  0  0  0
    7.1878    5.4314   -1.7622 C   0  0  0  0  0  0  0  0  0  0  0  0
    8.4293    6.2257   -2.1732 C   0  0  0  0  0  0  0  0  0  0  0  0
    1.0679   -1.1955    3.2638 N   0  0  0  0  0  0  0  0  0  0  0  0
    0.1875   -0.7838    2.4213 N   0  0  0  0  0  0  0  0  0  0  0  0
   -1.2378   -0.6418    2.7286 C   0  0  0  0  0  0  0  0  0  0  0  0
    1.0039    1.9031    0.0027 H   0  0  0  0  0  0  0  0  0  0  0  0
   -0.5459    1.8868   -0.8726 H   0  0  0  0  0  0  0  0  0  0  0  0
   -0.5289    1.8773    0.9072 H   0  0  0  0  0  0  0  0  0  0  0  0
   -1.0205   -0.3814    0.0098 H   0  0  0  0  0  0  0  0  0  0  0  0
    0.5123   -0.3556   -0.8948 H   0  0  0  0  0  0  0  0  0  0  0  0
    4.3459   -0.1933   -1.6054 H   0  0  0  0  0  0  0  0  0  0  0  0
    8.5397   -0.6915   -2.2201 H   0  0  0  0  0  0  0  0  0  0  0  0
    7.8863   -4.1077    2.4206 H   0  0  0  0  0  0  0  0  0  0  0  0
    8.4469   -3.6879    0.7842 H   0  0  0  0  0  0  0  0  0  0  0  0
    9.6065   -3.7519    2.1331 H   0  0  0  0  0  0  0  0  0  0  0  0
    9.9489   -0.1916    3.2934 H   0  0  0  0  0  0  0  0  0  0  0  0
   10.2494    0.2252    5.7256 H   0  0  0  0  0  0  0  0  0  0  0  0
    8.9496   -1.1508    7.3379 H   0  0  0  0  0  0  0  0  0  0  0  0
    7.4125   -2.8744    6.4835 H   0  0  0  0  0  0  0  0  0  0  0  0
    5.1156    3.2403   -4.4683 H   0  0  0  0  0  0  0  0  0  0  0  0
    4.4404    2.1275   -3.2490 H   0  0  0  0  0  0  0  0  0  0  0  0
    4.8587    4.4454   -2.3483 H   0  0  0  0  0  0  0  0  0  0  0  0
    5.7713    3.1837   -1.4859 H   0  0  0  0  0  0  0  0  0  0  0  0
    8.9620    3.9518   -2.9470 H   0  0  0  0  0  0  0  0  0  0  0  0
    8.0622    2.9081   -1.8201 H   0  0  0  0  0  0  0  0  0  0  0  0
    8.5597    1.6319   -3.8405 H   0  0  0  0  0  0  0  0  0  0  0  0
    7.8506    2.9112   -4.8610 H   0  0  0  0  0  0  0  0  0  0  0  0
    6.3324    6.1036   -1.6946 H   0  0  0  0  0  0  0  0  0  0  0  0
    7.3601    4.9639   -0.7928 H   0  0  0  0  0  0  0  0  0  0  0  0
    9.2847    5.5535   -2.2408 H   0  0  0  0  0  0  0  0  0  0  0  0
    8.2570    6.6932   -3.1426 H   0  0  0  0  0  0  0  0  0  0  0  0
    8.6306    6.9961   -1.4289 H   0  0  0  0  0  0  0  0  0  0  0  0
   -1.7527   -1.5761    2.5047 H   0  0  0  0  0  0  0  0  0  0  0  0
   -1.3598   -0.4040    3.7854 H   0  0  0  0  0  0  0  0  0  0  0  0
   -1.6616    0.1604    2.1245 H   0  0  0  0  0  0  0  0  0  0  0  0
    6.8352    4.8212   -3.6754 H   0  0  0  0  0  0  0  0  0  0  0  0
  1  2  1  0  0  0  0
  1 41  1  0  0  0  0
  1 42  1  0  0  0  0
  1 43  1  0  0  0  0
  2  3  1  0  0  0  0
  2 44  1  0  0  0  0
  2 45  1  0  0  0  0
  3 39  1  0  0  0  0
  3  4  2  0  0  0  0
  4 10  1  0  0  0  0
  4  5  1  0  0  0  0
  5  6  1  0  0  0  0
  5 38  2  0  0  0  0
  6  7  1  0  0  0  0
  6  8  2  0  0  0  0
  8  9  1  0  0  0  0
  9 10  2  0  0  0  0
  9 11  1  0  0  0  0
 11 16  2  0  0  0  0
 11 12  1  0  0  0  0
 12 13  2  0  0  0  0
 12 46  1  0  0  0  0
 13 14  1  0  0  0  0
 13 27  1  0  0  0  0
 14 15  2  0  0  0  0
 14 47  1  0  0  0  0
 15 16  1  0  0  0  0
 16 17  1  0  0  0  0
 17 18  1  0  0  0  0
 18 19  1  0  0  0  0
 18 20  1  0  0  0  0
 18 21  1  0  0  0  0
 20 48  1  0  0  0  0
 20 49  1  0  0  0  0
 20 50  1  0  0  0  0
 21 26  2  0  0  0  0
 21 22  1  0  0  0  0
 22 23  2  0  0  0  0
 22 51  1  0  0  0  0
 23 24  1  0  0  0  0
 23 52  1  0  0  0  0
 24 25  2  0  0  0  0
 24 53  1  0  0  0  0
 25 26  1  0  0  0  0
 25 54  1  0  0  0  0
 27 28  2  0  0  0  0
 27 29  2  0  0  0  0
 27 30  1  0  0  0  0
 30 35  1  0  0  0  0
 30 31  1  0  0  0  0
 31 32  1  0  0  0  0
 31 55  1  0  0  0  0
 31 56  1  0  0  0  0
 32 33  1  0  0  0  0
 32 57  1  0  0  0  0
 32 58  1  0  0  0  0
 33 34  1  0  0  0  0
 33 36  1  0  0  0  0
 33 71  1  0  0  0  0
 34 35  1  0  0  0  0
 34 59  1  0  0  0  0
 34 60  1  0  0  0  0
 35 61  1  0  0  0  0
 35 62  1  0  0  0  0
 36 37  1  0  0  0  0
 36 63  1  0  0  0  0
 36 64  1  0  0  0  0
 37 65  1  0  0  0  0
 37 66  1  0  0  0  0
 37 67  1  0  0  0  0
 38 39  1  0  0  0  0
 39 40  1  0  0  0  0
 40 68  1  0  0  0  0
 40 69  1  0  0  0  0
 40 70  1  0  0  0  0
M  CHG  2   7  -1  33   1
M  END
$$$$
CHEMBL455187
  -OEChem-07121202283D

 72 76  0     1  0  0  0  0  0999 V2000
   -0.0187    1.5258    0.0104 C   0  0  0  0  0  0  0  0  0  0  0  0
    0.0021   -0.0041    0.0020 C   0  0  0  0  0  0  0  0  0  0  0  0
   -1.4117   -0.5257    0.0127 C   0  0  0  0  0  0  0  0  0  0  0  0
   -2.1590   -0.8052    1.1067 C   0  0  0  0  0  0  0  0  0  0  0  0
   -3.4094   -1.2642    0.6062 C   0  0  0  0  0  0  0  0  0  0  0  0
   -4.4399   -1.6477    1.5887 C   0  0  0  0  0  0  0  0  0  0  0  0
   -5.5311   -2.0490    1.2217 O   0  0  0  0  0  0  0  0  0  0  0  0
   -4.1512   -1.5462    2.8945 N   0  0  0  0  0  0  0  0  0  0  0  0
   -2.9825   -1.1171    3.3216 C   0  0  0  0  0  0  0  0  0  0  0  0
   -1.9783   -0.7438    2.4823 N   0  0  0  0  0  0  0  0  0  0  0  0
   -2.7508   -1.0372    4.7753 C   0  0  0  0  0  0  0  0  0  0  0  0
   -1.5258   -0.5814    5.2779 C   0  0  0  0  0  0  0  0  0  0  0  0
   -1.3588   -0.5253    6.6499 C   0  0  0  0  0  0  0  0  0  0  0  0
   -2.3956   -0.9169    7.4782 C   0  0  0  0  0  0  0  0  0  0  0  0
   -3.5415   -1.3432    6.9836 N   0  0  0  0  0  0  0  0  0  0  0  0
   -3.7559   -1.4110    5.6807 C   0  0  0  0  0  0  0  0  0  0  0  0
   -4.9505   -1.8495    5.2169 O   0  0  0  0  0  0  0  0  0  0  0  0
   -5.9303   -2.2143    6.1910 C   0  0  2  0  0  0  0  0  0  0  0  0
   -5.7870   -1.6173    7.0917 H   0  0  0  0  0  0  0  0  0  0  0  0
   -5.7812   -3.6980    6.5335 C   0  0  0  0  0  0  0  0  0  0  0  0
   -7.3085   -1.9631    5.6357 C   0  0  0  0  0  0  0  0  0  0  0  0
   -8.1137   -1.0007    6.2156 C   0  0  0  0  0  0  0  0  0  0  0  0
   -9.3798   -0.7773    5.6972 C   0  0  0  0  0  0  0  0  0  0  0  0
   -9.7907   -1.5337    4.6100 C   0  0  0  0  0  0  0  0  0  0  0  0
   -8.9306   -2.4782    4.0832 C   0  0  0  0  0  0  0  0  0  0  0  0
   -7.7304   -2.6600    4.5990 N   0  0  0  0  0  0  0  0  0  0  0  0
    0.1621    0.0397    7.3371 S   0  0  0  0  0  0  0  0  0  0  0  0
    0.2521   -0.5207    8.6399 O   0  0  0  0  0  0  0  0  0  0  0  0
    1.1587   -0.1715    6.3464 O   0  0  0  0  0  0  0  0  0  0  0  0
    0.0311    1.6786    7.5349 N   0  0  0  0  0  0  0  0  0  0  0  0
    0.4248    2.6039    6.4612 C   0  0  0  0  0  0  0  0  0  0  0  0
   -0.7208    3.5948    6.2297 C   0  0  0  0  0  0  0  0  0  0  0  0
   -1.0643    4.2495    7.4983 N   0  3  0  0  0  0  0  0  0  0  0  0
   -1.5854    3.2580    8.4478 C   0  0  0  0  0  0  0  0  0  0  0  0
   -0.4879    2.2503    8.7871 C   0  0  0  0  0  0  0  0  0  0  0  0
   -2.0858    5.2771    7.2562 C   0  0  0  0  0  0  0  0  0  0  0  0
   -2.3546    6.0444    8.5523 C   0  0  0  0  0  0  0  0  0  0  0  0
   -3.3331   -1.2312   -0.7029 N   0  0  0  0  0  0  0  0  0  0  0  0
   -2.1771   -0.7979   -1.0684 N   0  0  0  0  0  0  0  0  0  0  0  0
   -1.7496   -0.6277   -2.4593 C   0  0  0  0  0  0  0  0  0  0  0  0
    1.0039    1.9031    0.0027 H   0  0  0  0  0  0  0  0  0  0  0  0
   -0.5459    1.8868   -0.8726 H   0  0  0  0  0  0  0  0  0  0  0  0
   -0.5289    1.8773    0.9072 H   0  0  0  0  0  0  0  0  0  0  0  0
    0.5123   -0.3556   -0.8948 H   0  0  0  0  0  0  0  0  0  0  0  0
    0.5293   -0.3651    0.8851 H   0  0  0  0  0  0  0  0  0  0  0  0
   -0.7311   -0.2814    4.6109 H   0  0  0  0  0  0  0  0  0  0  0  0
   -2.2640   -0.8731    8.5493 H   0  0  0  0  0  0  0  0  0  0  0  0
   -4.7843   -3.8798    6.9352 H   0  0  0  0  0  0  0  0  0  0  0  0
   -6.5285   -3.9763    7.2766 H   0  0  0  0  0  0  0  0  0  0  0  0
   -5.9244   -4.2950    5.6329 H   0  0  0  0  0  0  0  0  0  0  0  0
   -7.7609   -0.4302    7.0621 H   0  0  0  0  0  0  0  0  0  0  0  0
  -10.0309   -0.0322    6.1300 H   0  0  0  0  0  0  0  0  0  0  0  0
  -10.7707   -1.3867    4.1806 H   0  0  0  0  0  0  0  0  0  0  0  0
   -9.2430   -3.0714    3.2365 H   0  0  0  0  0  0  0  0  0  0  0  0
    1.3237    3.1456    6.7557 H   0  0  0  0  0  0  0  0  0  0  0  0
    0.6148    2.0433    5.5459 H   0  0  0  0  0  0  0  0  0  0  0  0
   -0.4097    4.3472    5.5050 H   0  0  0  0  0  0  0  0  0  0  0  0
   -1.5915    3.0612    5.8487 H   0  0  0  0  0  0  0  0  0  0  0  0
   -1.9114    3.7622    9.3575 H   0  0  0  0  0  0  0  0  0  0  0  0
   -2.4300    2.7346    7.9996 H   0  0  0  0  0  0  0  0  0  0  0  0
   -0.9011    1.4560    9.4088 H   0  0  0  0  0  0  0  0  0  0  0  0
    0.3172    2.7556    9.3205 H   0  0  0  0  0  0  0  0  0  0  0  0
   -1.7317    5.9683    6.4914 H   0  0  0  0  0  0  0  0  0  0  0  0
   -3.0064    4.8015    6.9178 H   0  0  0  0  0  0  0  0  0  0  0  0
   -1.4340    6.5199    8.8906 H   0  0  0  0  0  0  0  0  0  0  0  0
   -3.1126    6.8068    8.3726 H   0  0  0  0  0  0  0  0  0  0  0  0
   -2.7088    5.3531    9.3170 H   0  0  0  0  0  0  0  0  0  0  0  0
   -1.2883   -1.5498   -2.8130 H   0  0  0  0  0  0  0  0  0  0  0  0
   -2.6150   -0.3933   -3.0792 H   0  0  0  0  0  0  0  0  0  0  0  0
   -1.0276    0.1865   -2.5204 H   0  0  0  0  0  0  0  0  0  0  0  0
   -0.2397    4.6833    7.8856 H   0  0  0  0  0  0  0  0  0  0  0  0
   -1.1341   -0.4340    2.8460 H   0  0  0  0  0  0  0  0  0  0  0  0
  1  2  1  0  0  0  0
  1 41  1  0  0  0  0
  1 42  1  0  0  0  0
  1 43  1  0  0  0  0
  2  3  1  0  0  0  0
  2 44  1  0  0  0  0
  2 45  1  0  0  0  0
  3 39  1  0  0  0  0
  3  4  2  0  0  0  0
  4 10  1  0  0  0  0
  4  5  1  0  0  0  0
  5  6  1  0  0  0  0
  5 38  2  0  0  0  0
  6  7  2  0  0  0  0
  6  8  1  0  0  0  0
  8  9  2  0  0  0  0
  9 10  1  0  0  0  0
  9 11  1  0  0  0  0
 10 72  1  0  0  0  0
 11 16  2  0  0  0  0
 11 12  1  0  0  0  0
 12 13  2  0  0  0  0
 12 46  1  0  0  0  0
 13 14  1  0  0  0  0
 13 27  1  0  0  0  0
 14 15  2  0  0  0  0
 14 47  1  0  0  0  0
 15 16  1  0  0  0  0
 16 17  1  0  0  0  0
 17 18  1  0  0  0  0
 18 19  1  0  0  0  0
 18 20  1  0  0  0  0
 18 21  1  0  0  0  0
 20 48  1  0  0  0  0
 20 49  1  0  0  0  0
 20 50  1  0  0  0  0
 21 26  2  0  0  0  0
 21 22  1  0  0  0  0
 22 23  2  0  0  0  0
 22 51  1  0  0  0  0
 23 24  1  0  0  0  0
 23 52  1  0  0  0  0
 24 25  2  0  0  0  0
 24 53  1  0  0  0  0
 25 26  1  0  0  0  0
 25 54  1  0  0  0  0
 27 28  2  0  0  0  0
 27 29  2  0  0  0  0
 27 30  1  0  0  0  0
 30 35  1  0  0  0  0
 30 31  1  0  0  0  0
 31 32  1  0  0  0  0
 31 55  1  0  0  0  0
 31 56  1  0  0  0  0
 32 33  1  0  0  0  0
 32 57  1  0  0  0  0
 32 58  1  0  0  0  0
 33 34  1  0  0  0  0
 33 36  1  0  0  0  0
 33 71  1  0  0  0  0
 34 35  1  0  0  0  0
 34 59  1  0  0  0  0
 34 60  1  0  0  0  0
 35 61  1  0  0  0  0
 35 62  1  0  0  0  0
 36 37  1  0  0  0  0
 36 63  1  0  0  0  0
 36 64  1  0  0  0  0
 37 65  1  0  0  0  0
 37 66  1  0  0  0  0
 37 67  1  0  0  0  0
 38 39  1  0  0  0  0
 39 40  1  0  0  0  0
 40 68  1  0  0  0  0
 40 69  1  0  0  0  0
 40 70  1  0  0  0  0
M  CHG  1  33   1
M  END
$$$$
CHEMBL455187
  -OEChem-07121202283D

 70 74  0     1  0  0  0  0  0999 V2000
   -0.0187    1.5258    0.0104 C   0  0  0  0  0  0  0  0  0  0  0  0
    0.0021   -0.0041    0.0020 C   0  0  0  0  0  0  0  0  0  0  0  0
   -1.4117   -0.5257    0.0127 C   0  0  0  0  0  0  0  0  0  0  0  0
   -2.1727   -0.8104    1.1256 C   0  0  0  0  0  0  0  0  0  0  0  0
   -3.4588   -1.2829    0.5767 C   0  0  0  0  0  0  0  0  0  0  0  0
   -4.4899   -1.6672    1.5381 C   0  0  0  0  0  0  0  0  0  0  0  0
   -5.6993   -2.1124    1.1270 O   0  5  0  0  0  0  0  0  0  0  0  0
   -4.1994   -1.5649    2.8233 N   0  0  0  0  0  0  0  0  0  0  0  0
   -3.0141   -1.1291    3.2525 C   0  0  0  0  0  0  0  0  0  0  0  0
   -2.0304   -0.7633    2.4584 N   0  0  0  0  0  0  0  0  0  0  0  0
   -2.7907   -1.0524    4.7148 C   0  0  0  0  0  0  0  0  0  0  0  0
   -1.5720   -0.5984    5.2245 C   0  0  0  0  0  0  0  0  0  0  0  0
   -1.4126   -0.5452    6.5991 C   0  0  0  0  0  0  0  0  0  0  0  0
   -2.4535   -0.9389    7.4193 C   0  0  0  0  0  0  0  0  0  0  0  0
   -3.5959   -1.3643    6.9147 N   0  0  0  0  0  0  0  0  0  0  0  0
   -3.7999   -1.4283    5.6102 C   0  0  0  0  0  0  0  0  0  0  0  0
   -4.9920   -1.8659    5.1359 O   0  0  0  0  0  0  0  0  0  0  0  0
   -5.9788   -2.2339    6.1017 C   0  0  2  0  0  0  0  0  0  0  0  0
   -5.8423   -1.6397    7.0052 H   0  0  0  0  0  0  0  0  0  0  0  0
   -5.8320   -3.7186    6.4407 C   0  0  0  0  0  0  0  0  0  0  0  0
   -7.3530   -1.9810    5.5371 C   0  0  0  0  0  0  0  0  0  0  0  0
   -8.1625   -1.0206    6.1141 C   0  0  0  0  0  0  0  0  0  0  0  0
   -9.4249   -0.7958    5.5871 C   0  0  0  0  0  0  0  0  0  0  0  0
   -9.8276   -1.5489    4.4945 C   0  0  0  0  0  0  0  0  0  0  0  0
   -8.9635   -2.4916    3.9711 C   0  0  0  0  0  0  0  0  0  0  0  0
   -7.7672   -2.6748    4.4952 N   0  0  0  0  0  0  0  0  0  0  0  0
    0.1040    0.0188    7.2966 S   0  0  0  0  0  0  0  0  0  0  0  0
    0.1865   -0.5445    8.5986 O   0  0  0  0  0  0  0  0  0  0  0  0
    1.1065   -0.1896    6.3114 O   0  0  0  0  0  0  0  0  0  0  0  0
   -0.0289    1.6573    7.4974 N   0  0  0  0  0  0  0  0  0  0  0  0
    0.3712    2.5838    6.4275 C   0  0  0  0  0  0  0  0  0  0  0  0
   -0.7798    3.5638    6.1767 C   0  0  0  0  0  0  0  0  0  0  0  0
   -1.1584    4.2041    7.4434 N   0  0  0  0  0  0  0  0  0  0  0  0
   -1.6647    3.2187    8.4081 C   0  0  0  0  0  0  0  0  0  0  0  0
   -0.5557    2.2243    8.7481 C   0  0  0  0  0  0  0  0  0  0  0  0
   -2.1397    5.2741    7.2198 C   0  0  0  0  0  0  0  0  0  0  0  0
   -2.3220    6.0767    8.5096 C   0  0  0  0  0  0  0  0  0  0  0  0
   -3.3368   -1.2333   -0.7298 N   0  0  0  0  0  0  0  0  0  0  0  0
   -2.1737   -0.7967   -1.0626 N   0  0  0  0  0  0  0  0  0  0  0  0
   -1.7298   -0.6200   -2.4475 C   0  0  0  0  0  0  0  0  0  0  0  0
    1.0039    1.9031    0.0027 H   0  0  0  0  0  0  0  0  0  0  0  0
   -0.5459    1.8868   -0.8726 H   0  0  0  0  0  0  0  0  0  0  0  0
   -0.5289    1.8773    0.9072 H   0  0  0  0  0  0  0  0  0  0  0  0
    0.5123   -0.3556   -0.8948 H   0  0  0  0  0  0  0  0  0  0  0  0
    0.5293   -0.3651    0.8851 H   0  0  0  0  0  0  0  0  0  0  0  0
   -0.7736   -0.2966    4.5628 H   0  0  0  0  0  0  0  0  0  0  0  0
   -2.3293   -0.8978    8.4913 H   0  0  0  0  0  0  0  0  0  0  0  0
   -4.8380   -3.9014    6.8490 H   0  0  0  0  0  0  0  0  0  0  0  0
   -6.5847   -3.9993    7.1773 H   0  0  0  0  0  0  0  0  0  0  0  0
   -5.9685   -4.3128    5.5371 H   0  0  0  0  0  0  0  0  0  0  0  0
   -7.8161   -0.4527    6.9649 H   0  0  0  0  0  0  0  0  0  0  0  0
  -10.0792   -0.0521    6.0174 H   0  0  0  0  0  0  0  0  0  0  0  0
  -10.8045   -1.4007    4.0584 H   0  0  0  0  0  0  0  0  0  0  0  0
   -9.2697   -3.0822    3.1203 H   0  0  0  0  0  0  0  0  0  0  0  0
    1.2608    3.1344    6.7335 H   0  0  0  0  0  0  0  0  0  0  0  0
    0.5797    2.0229    5.5164 H   0  0  0  0  0  0  0  0  0  0  0  0
   -0.4605    4.3255    5.4653 H   0  0  0  0  0  0  0  0  0  0  0  0
   -1.6358    3.0237    5.7720 H   0  0  0  0  0  0  0  0  0  0  0  0
   -1.9871    3.7300    9.3151 H   0  0  0  0  0  0  0  0  0  0  0  0
   -2.5083    2.6833    7.9724 H   0  0  0  0  0  0  0  0  0  0  0  0
   -0.9597    1.4259    9.3705 H   0  0  0  0  0  0  0  0  0  0  0  0
    0.2431    2.7396    9.2815 H   0  0  0  0  0  0  0  0  0  0  0  0
   -1.7838    5.9339    6.4286 H   0  0  0  0  0  0  0  0  0  0  0  0
   -3.0939    4.8365    6.9263 H   0  0  0  0  0  0  0  0  0  0  0  0
   -3.0501    6.8707    8.3437 H   0  0  0  0  0  0  0  0  0  0  0  0
   -2.6778    5.4169    9.3009 H   0  0  0  0  0  0  0  0  0  0  0  0
   -1.3678    6.5143    8.8032 H   0  0  0  0  0  0  0  0  0  0  0  0
   -1.2640   -1.5403   -2.8000 H   0  0  0  0  0  0  0  0  0  0  0  0
   -2.5877   -0.3829   -3.0766 H   0  0  0  0  0  0  0  0  0  0  0  0
   -1.0072    0.1947   -2.4963 H   0  0  0  0  0  0  0  0  0  0  0  0
  1  2  1  0  0  0  0
  1 41  1  0  0  0  0
  1 42  1  0  0  0  0
  1 43  1  0  0  0  0
  2  3  1  0  0  0  0
  2 44  1  0  0  0  0
  2 45  1  0  0  0  0
  3 39  1  0  0  0  0
  3  4  2  0  0  0  0
  4 10  1  0  0  0  0
  4  5  1  0  0  0  0
  5  6  1  0  0  0  0
  5 38  2  0  0  0  0
  6  7  1  0  0  0  0
  6  8  2  0  0  0  0
  8  9  1  0  0  0  0
  9 10  2  0  0  0  0
  9 11  1  0  0  0  0
 11 16  2  0  0  0  0
 11 12  1  0  0  0  0
 12 13  2  0  0  0  0
 12 46  1  0  0  0  0
 13 14  1  0  0  0  0
 13 27  1  0  0  0  0
 14 15  2  0  0  0  0
 14 47  1  0  0  0  0
 15 16  1  0  0  0  0
 16 17  1  0  0  0  0
 17 18  1  0  0  0  0
 18 19  1  0  0  0  0
 18 20  1  0  0  0  0
 18 21  1  0  0  0  0
 20 48  1  0  0  0  0
 20 49  1  0  0  0  0
 20 50  1  0  0  0  0
 21 26  2  0  0  0  0
 21 22  1  0  0  0  0
 22 23  2  0  0  0  0
 22 51  1  0  0  0  0
 23 24  1  0  0  0  0
 23 52  1  0  0  0  0
 24 25  2  0  0  0  0
 24 53  1  0  0  0  0
 25 26  1  0  0  0  0
 25 54  1  0  0  0  0
 27 28  2  0  0  0  0
 27 29  2  0  0  0  0
 27 30  1  0  0  0  0
 30 35  1  0  0  0  0
 30 31  1  0  0  0  0
 31 32  1  0  0  0  0
 31 55  1  0  0  0  0
 31 56  1  0  0  0  0
 32 33  1  0  0  0  0
 32 57  1  0  0  0  0
 32 58  1  0  0  0  0
 33 34  1  0  0  0  0
 33 36  1  0  0  0  0
 34 35  1  0  0  0  0
 34 59  1  0  0  0  0
 34 60  1  0  0  0  0
 35 61  1  0  0  0  0
 35 62  1  0  0  0  0
 36 37  1  0  0  0  0
 36 63  1  0  0  0  0
 36 64  1  0  0  0  0
 37 65  1  0  0  0  0
 37 66  1  0  0  0  0
 37 67  1  0  0  0  0
 38 39  1  0  0  0  0
 39 40  1  0  0  0  0
 40 68  1  0  0  0  0
 40 69  1  0  0  0  0
 40 70  1  0  0  0  0
M  CHG  1   7  -1
M  END
$$$$
CHEMBL284719
  -OEChem-07121202283D

 67 74  0     1  0  0  0  0  0999 V2000
    0.0254    1.0490   -0.1727 C   0  0  0  0  0  0  0  0  0  0  0  0
    1.2113    1.7587   -0.2011 C   0  0  0  0  0  0  0  0  0  0  0  0
    2.4194    1.0871   -0.1810 C   0  0  0  0  0  0  0  0  0  0  0  0
    2.4416   -0.2942   -0.1321 C   0  0  0  0  0  0  0  0  0  0  0  0
    1.2557   -1.0039   -0.1029 C   0  0  0  0  0  0  0  0  0  0  0  0
    0.0476   -0.3324   -0.1244 C   0  0  0  0  0  0  0  0  0  0  0  0
    3.7586   -1.0264   -0.1113 C   0  0  0  0  0  0  0  0  0  0  0  0
    4.1919   -1.2152    1.2796 N   0  0  0  0  0  0  0  0  0  0  0  0
    5.0949   -0.1292    1.7040 C   0  0  0  0  0  0  0  0  0  0  0  0
    5.9505   -1.1912    2.4088 C   0  0  0  0  0  0  0  0  0  0  0  0
    5.3470   -2.1291    1.3539 C   0  0  0  0  0  0  0  0  0  0  0  0
    5.5319   -1.4843    3.7818 N   0  0  0  0  0  0  0  0  0  0  0  0
    4.1873   -1.9936    3.9938 C   0  0  0  0  0  0  0  0  0  0  0  0
    3.9280   -2.3149    5.4297 C   0  0  0  0  0  0  0  0  0  0  0  0
    2.8423   -2.7707    5.7202 O   0  0  0  0  0  0  0  0  0  0  0  0
    4.8109   -2.1345    6.4143 N   0  0  0  0  0  0  0  0  0  0  0  0
    6.1208   -1.5179    6.2095 C   0  0  1  0  0  0  0  0  0  0  0  0
    6.8891   -2.1868    6.5974 H   0  0  0  0  0  0  0  0  0  0  0  0
    6.4072   -1.2738    4.7630 C   0  0  0  0  0  0  0  0  0  0  0  0
    7.5049   -0.8535    4.4644 O   0  0  0  0  0  0  0  0  0  0  0  0
    6.1810   -0.1933    6.9832 C   0  0  0  0  0  0  0  0  0  0  0  0
    5.6290   -0.4146    8.3683 C   0  0  0  0  0  0  0  0  0  0  0  0
    5.7973    0.4131    9.5454 C   0  0  0  0  0  0  0  0  0  0  0  0
    6.4832    1.6103    9.7722 C   0  0  0  0  0  0  0  0  0  0  0  0
    6.4284    2.1253   11.0439 C   0  0  0  0  0  0  0  0  0  0  0  0
    5.7302    1.4977   12.0625 C   0  0  0  0  0  0  0  0  0  0  0  0
    5.0417    0.3133   11.8656 C   0  0  0  0  0  0  0  0  0  0  0  0
    5.0791   -0.2328   10.5842 C   0  0  0  0  0  0  0  0  0  0  0  0
    4.5252   -1.3623   10.0538 N   0  0  0  0  0  0  0  0  0  0  0  0
    3.9761   -1.9963   10.5411 H   0  0  0  0  0  0  0  0  0  0  0  0
    4.8610   -1.4651    8.7300 C   0  0  0  0  0  0  0  0  0  0  0  0
    4.4599   -2.5723    7.7820 C   0  0  1  0  0  0  0  0  0  0  0  0
    5.0016   -3.4854    8.0290 H   0  0  0  0  0  0  0  0  0  0  0  0
    2.9756   -2.8148    7.8769 C   0  0  0  0  0  0  0  0  0  0  0  0
    2.4972   -4.0972    8.0714 C   0  0  0  0  0  0  0  0  0  0  0  0
    1.1365   -4.3246    8.1595 C   0  0  0  0  0  0  0  0  0  0  0  0
    0.2484   -3.2667    8.0525 C   0  0  0  0  0  0  0  0  0  0  0  0
    0.7303   -1.9748    7.8565 C   0  0  0  0  0  0  0  0  0  0  0  0
    2.0955   -1.7536    7.7749 C   0  0  0  0  0  0  0  0  0  0  0  0
   -0.3311   -1.1195    7.7843 O   0  0  0  0  0  0  0  0  0  0  0  0
   -1.4784   -1.9513    7.5290 C   0  0  0  0  0  0  0  0  0  0  0  0
   -1.1149   -3.2208    8.1031 O   0  0  0  0  0  0  0  0  0  0  0  0
   -0.9184    1.5738   -0.1839 H   0  0  0  0  0  0  0  0  0  0  0  0
    1.1940    2.8379   -0.2392 H   0  0  0  0  0  0  0  0  0  0  0  0
    3.3459    1.6416   -0.2038 H   0  0  0  0  0  0  0  0  0  0  0  0
    1.2730   -2.0831   -0.0651 H   0  0  0  0  0  0  0  0  0  0  0  0
   -0.8789   -0.8869   -0.1019 H   0  0  0  0  0  0  0  0  0  0  0  0
    3.6416   -1.9983   -0.5905 H   0  0  0  0  0  0  0  0  0  0  0  0
    4.5067   -0.4439   -0.6489 H   0  0  0  0  0  0  0  0  0  0  0  0
    5.6059    0.3597    0.8746 H   0  0  0  0  0  0  0  0  0  0  0  0
    4.6299    0.5790    2.3898 H   0  0  0  0  0  0  0  0  0  0  0  0
    7.0249   -1.0380    2.3075 H   0  0  0  0  0  0  0  0  0  0  0  0
    5.0958   -3.1158    1.7430 H   0  0  0  0  0  0  0  0  0  0  0  0
    5.9253   -2.1739    0.4310 H   0  0  0  0  0  0  0  0  0  0  0  0
    3.4684   -1.2439    3.6633 H   0  0  0  0  0  0  0  0  0  0  0  0
    4.0529   -2.8971    3.3990 H   0  0  0  0  0  0  0  0  0  0  0  0
    7.2156    0.1431    7.0517 H   0  0  0  0  0  0  0  0  0  0  0  0
    5.5836    0.5585    6.4676 H   0  0  0  0  0  0  0  0  0  0  0  0
    7.0306    2.1063    8.9844 H   0  0  0  0  0  0  0  0  0  0  0  0
    6.9464    3.0488   11.2568 H   0  0  0  0  0  0  0  0  0  0  0  0
    5.7231    1.9479   13.0442 H   0  0  0  0  0  0  0  0  0  0  0  0
    4.5001   -0.1655   12.6681 H   0  0  0  0  0  0  0  0  0  0  0  0
    3.1880   -4.9232    8.1543 H   0  0  0  0  0  0  0  0  0  0  0  0
    0.7656   -5.3275    8.3115 H   0  0  0  0  0  0  0  0  0  0  0  0
    2.4722   -0.7522    7.6275 H   0  0  0  0  0  0  0  0  0  0  0  0
   -2.3621   -1.5468    8.0224 H   0  0  0  0  0  0  0  0  0  0  0  0
   -1.6487   -2.0505    6.4570 H   0  0  0  0  0  0  0  0  0  0  0  0
  1  6  2  0  0  0  0
  1  2  1  0  0  0  0
  1 43  1  0  0  0  0
  2  3  2  0  0  0  0
  2 44  1  0  0  0  0
  3  4  1  0  0  0  0
  3 45  1  0  0  0  0
  4  5  2  0  0  0  0
  4  7  1  0  0  0  0
  5  6  1  0  0  0  0
  5 46  1  0  0  0  0
  6 47  1  0  0  0  0
  7  8  1  0  0  0  0
  7 48  1  0  0  0  0
  7 49  1  0  0  0  0
  8 11  1  0  0  0  0
  8  9  1  0  0  0  0
  9 10  1  0  0  0  0
  9 50  1  0  0  0  0
  9 51  1  0  0  0  0
 10 11  1  0  0  0  0
 10 12  1  0  0  0  0
 10 52  1  0  0  0  0
 11 53  1  0  0  0  0
 11 54  1  0  0  0  0
 12 19  1  0  0  0  0
 12 13  1  0  0  0  0
 13 14  1  0  0  0  0
 13 55  1  0  0  0  0
 13 56  1  0  0  0  0
 14 15  2  0  0  0  0
 14 16  1  0  0  0  0
 16 32  1  0  0  0  0
 16 17  1  0  0  0  0
 17 18  1  0  0  0  0
 17 19  1  0  0  0  0
 17 21  1  0  0  0  0
 19 20  2  0  0  0  0
 21 22  1  0  0  0  0
 21 57  1  0  0  0  0
 21 58  1  0  0  0  0
 22 31  2  0  0  0  0
 22 23  1  0  0  0  0
 23 28  2  0  0  0  0
 23 24  1  0  0  0  0
 24 25  2  0  0  0  0
 24 59  1  0  0  0  0
 25 26  1  0  0  0  0
 25 60  1  0  0  0  0
 26 27  2  0  0  0  0
 26 61  1  0  0  0  0
 27 28  1  0  0  0  0
 27 62  1  0  0  0  0
 28 29  1  0  0  0  0
 29 30  1  0  0  0  0
 29 31  1  0  0  0  0
 31 32  1  0  0  0  0
 32 33  1  0  0  0  0
 32 34  1  0  0  0  0
 34 39  2  0  0  0  0
 34 35  1  0  0  0  0
 35 36  2  0  0  0  0
 35 63  1  0  0  0  0
 36 37  1  0  0  0  0
 36 64  1  0  0  0  0
 37 42  1  0  0  0  0
 37 38  2  0  0  0  0
 38 39  1  0  0  0  0
 38 40  1  0  0  0  0
 39 65  1  0  0  0  0
 40 41  1  0  0  0  0
 41 42  1  0  0  0  0
 41 66  1  0  0  0  0
 41 67  1  0  0  0  0
M  END
$$$$
CHEMBL284719
  -OEChem-07121202283D

 68 75  0     1  0  0  0  0  0999 V2000
    0.0659    1.0717   -0.1929 C   0  0  0  0  0  0  0  0  0  0  0  0
    1.2544    1.7773   -0.2166 C   0  0  0  0  0  0  0  0  0  0  0  0
    2.4601    1.1016   -0.1927 C   0  0  0  0  0  0  0  0  0  0  0  0
    2.4773   -0.2799   -0.1447 C   0  0  0  0  0  0  0  0  0  0  0  0
    1.2888   -0.9855   -0.1201 C   0  0  0  0  0  0  0  0  0  0  0  0
    0.0832   -0.3097   -0.1454 C   0  0  0  0  0  0  0  0  0  0  0  0
    3.7916   -1.0166   -0.1196 C   0  0  0  0  0  0  0  0  0  0  0  0
    4.2193   -1.2079    1.2727 N   0  3  0  0  0  0  0  0  0  0  0  0
    4.9885   -0.0707    1.8114 C   0  0  0  0  0  0  0  0  0  0  0  0
    5.8765   -1.0887    2.5407 C   0  0  0  0  0  0  0  0  0  0  0  0
    5.4406   -2.0240    1.4042 C   0  0  0  0  0  0  0  0  0  0  0  0
    5.3802   -1.4792    3.8626 N   0  0  0  0  0  0  0  0  0  0  0  0
    4.0728   -2.1088    3.9447 C   0  0  0  0  0  0  0  0  0  0  0  0
    3.7323   -2.5169    5.3410 C   0  0  0  0  0  0  0  0  0  0  0  0
    2.6714   -3.0751    5.5243 O   0  0  0  0  0  0  0  0  0  0  0  0
    4.5173   -2.3088    6.4002 N   0  0  0  0  0  0  0  0  0  0  0  0
    5.7802   -1.5756    6.3268 C   0  0  1  0  0  0  0  0  0  0  0  0
    6.5717   -2.1949    6.7490 H   0  0  0  0  0  0  0  0  0  0  0  0
    6.1552   -1.2416    4.9191 C   0  0  0  0  0  0  0  0  0  0  0  0
    7.2319   -0.7173    4.7272 O   0  0  0  0  0  0  0  0  0  0  0  0
    5.6645   -0.2879    7.1546 C   0  0  0  0  0  0  0  0  0  0  0  0
    5.0285   -0.6187    8.4805 C   0  0  0  0  0  0  0  0  0  0  0  0
    5.0323    0.1648    9.6992 C   0  0  0  0  0  0  0  0  0  0  0  0
    5.5914    1.4036   10.0280 C   0  0  0  0  0  0  0  0  0  0  0  0
    5.3936    1.8528   11.3104 C   0  0  0  0  0  0  0  0  0  0  0  0
    4.6762    1.1222   12.2435 C   0  0  0  0  0  0  0  0  0  0  0  0
    4.1111   -0.1054   11.9448 C   0  0  0  0  0  0  0  0  0  0  0  0
    4.2950   -0.5865   10.6501 C   0  0  0  0  0  0  0  0  0  0  0  0
    3.8846   -1.7327   10.0324 N   0  0  0  0  0  0  0  0  0  0  0  0
    3.3570   -2.4325   10.4481 H   0  0  0  0  0  0  0  0  0  0  0  0
    4.3295   -1.7455    8.7370 C   0  0  0  0  0  0  0  0  0  0  0  0
    4.1012   -2.8374    7.7167 C   0  0  1  0  0  0  0  0  0  0  0  0
    4.6998   -3.7123    7.9704 H   0  0  0  0  0  0  0  0  0  0  0  0
    2.6408   -3.2077    7.6813 C   0  0  0  0  0  0  0  0  0  0  0  0
    2.2627   -4.5335    7.7856 C   0  0  0  0  0  0  0  0  0  0  0  0
    0.9243   -4.8781    7.7541 C   0  0  0  0  0  0  0  0  0  0  0  0
   -0.0419   -3.8946    7.6174 C   0  0  0  0  0  0  0  0  0  0  0  0
    0.3390   -2.5592    7.5123 C   0  0  0  0  0  0  0  0  0  0  0  0
    1.6820   -2.2206    7.5504 C   0  0  0  0  0  0  0  0  0  0  0  0
   -0.7842   -1.7936    7.3881 O   0  0  0  0  0  0  0  0  0  0  0  0
   -1.8313   -2.7060    7.0081 C   0  0  0  0  0  0  0  0  0  0  0  0
   -1.4038   -3.9657    7.5591 O   0  0  0  0  0  0  0  0  0  0  0  0
   -0.8760    1.5998   -0.2071 H   0  0  0  0  0  0  0  0  0  0  0  0
    1.2409    2.8566   -0.2541 H   0  0  0  0  0  0  0  0  0  0  0  0
    3.3886    1.6528   -0.2119 H   0  0  0  0  0  0  0  0  0  0  0  0
    1.3023   -2.0647   -0.0830 H   0  0  0  0  0  0  0  0  0  0  0  0
   -0.8454   -0.8610   -0.1266 H   0  0  0  0  0  0  0  0  0  0  0  0
    3.6730   -1.9878   -0.6000 H   0  0  0  0  0  0  0  0  0  0  0  0
    4.5437   -0.4363   -0.6542 H   0  0  0  0  0  0  0  0  0  0  0  0
    5.5174    0.4972    1.0461 H   0  0  0  0  0  0  0  0  0  0  0  0
    4.4118    0.5635    2.4848 H   0  0  0  0  0  0  0  0  0  0  0  0
    6.9380   -0.8413    2.5329 H   0  0  0  0  0  0  0  0  0  0  0  0
    5.2472   -3.0453    1.7323 H   0  0  0  0  0  0  0  0  0  0  0  0
    6.0903   -1.9773    0.5301 H   0  0  0  0  0  0  0  0  0  0  0  0
    3.3189   -1.4075    3.5869 H   0  0  0  0  0  0  0  0  0  0  0  0
    4.0643   -2.9918    3.3057 H   0  0  0  0  0  0  0  0  0  0  0  0
    6.6573    0.1307    7.3199 H   0  0  0  0  0  0  0  0  0  0  0  0
    5.0453    0.4342    6.6224 H   0  0  0  0  0  0  0  0  0  0  0  0
    6.1527    1.9798    9.3073 H   0  0  0  0  0  0  0  0  0  0  0  0
    5.8109    2.8056   11.6009 H   0  0  0  0  0  0  0  0  0  0  0  0
    4.5539    1.5243   13.2384 H   0  0  0  0  0  0  0  0  0  0  0  0
    3.5530   -0.6646   12.6812 H   0  0  0  0  0  0  0  0  0  0  0  0
    3.0145   -5.3015    7.8915 H   0  0  0  0  0  0  0  0  0  0  0  0
    0.6318   -5.9145    7.8358 H   0  0  0  0  0  0  0  0  0  0  0  0
    1.9800   -1.1854    7.4736 H   0  0  0  0  0  0  0  0  0  0  0  0
   -2.7825   -2.4004    7.4439 H   0  0  0  0  0  0  0  0  0  0  0  0
   -1.9088   -2.7693    5.9227 H   0  0  0  0  0  0  0  0  0  0  0  0
    3.4691   -1.5082    1.8769 H   0  0  0  0  0  0  0  0  0  0  0  0
  1  6  2  0  0  0  0
  1  2  1  0  0  0  0
  1 43  1  0  0  0  0
  2  3  2  0  0  0  0
  2 44  1  0  0  0  0
  3  4  1  0  0  0  0
  3 45  1  0  0  0  0
  4  5  2  0  0  0  0
  4  7  1  0  0  0  0
  5  6  1  0  0  0  0
  5 46  1  0  0  0  0
  6 47  1  0  0  0  0
  7  8  1  0  0  0  0
  7 48  1  0  0  0  0
  7 49  1  0  0  0  0
  8 11  1  0  0  0  0
  8  9  1  0  0  0  0
  8 68  1  0  0  0  0
  9 10  1  0  0  0  0
  9 50  1  0  0  0  0
  9 51  1  0  0  0  0
 10 11  1  0  0  0  0
 10 12  1  0  0  0  0
 10 52  1  0  0  0  0
 11 53  1  0  0  0  0
 11 54  1  0  0  0  0
 12 19  1  0  0  0  0
 12 13  1  0  0  0  0
 13 14  1  0  0  0  0
 13 55  1  0  0  0  0
 13 56  1  0  0  0  0
 14 15  2  0  0  0  0
 14 16  1  0  0  0  0
 16 32  1  0  0  0  0
 16 17  1  0  0  0  0
 17 18  1  0  0  0  0
 17 19  1  0  0  0  0
 17 21  1  0  0  0  0
 19 20  2  0  0  0  0
 21 22  1  0  0  0  0
 21 57  1  0  0  0  0
 21 58  1  0  0  0  0
 22 31  2  0  0  0  0
 22 23  1  0  0  0  0
 23 28  2  0  0  0  0
 23 24  1  0  0  0  0
 24 25  2  0  0  0  0
 24 59  1  0  0  0  0
 25 26  1  0  0  0  0
 25 60  1  0  0  0  0
 26 27  2  0  0  0  0
 26 61  1  0  0  0  0
 27 28  1  0  0  0  0
 27 62  1  0  0  0  0
 28 29  1  0  0  0  0
 29 30  1  0  0  0  0
 29 31  1  0  0  0  0
 31 32  1  0  0  0  0
 32 33  1  0  0  0  0
 32 34  1  0  0  0  0
 34 39  2  0  0  0  0
 34 35  1  0  0  0  0
 35 36  2  0  0  0  0
 35 63  1  0  0  0  0
 36 37  1  0  0  0  0
 36 64  1  0  0  0  0
 37 42  1  0  0  0  0
 37 38  2  0  0  0  0
 38 39  1  0  0  0  0
 38 40  1  0  0  0  0
 39 65  1  0  0  0  0
 40 41  1  0  0  0  0
 41 42  1  0  0  0  0
 41 66  1  0  0  0  0
 41 67  1  0  0  0  0
M  CHG  1   8   1
M  END
$$$$
CHEMBL356178
  -OEChem-07121202283D

 76 81  0     0  0  0  0  0  0999 V2000
   -0.0154    1.4868    0.6987 C   0  0  0  0  0  0  0  0  0  0  0  0
   -0.0054   -0.0043    0.3560 C   0  0  0  0  0  0  0  0  0  0  0  0
   -1.4357   -0.5461    0.3949 C   0  0  0  0  0  0  0  0  0  0  0  0
   -1.4264   -1.9388    0.0748 O   0  0  0  0  0  0  0  0  0  0  0  0
   -2.6227   -2.5760    0.0651 C   0  0  0  0  0  0  0  0  0  0  0  0
   -3.7858   -1.8738    0.3527 C   0  0  0  0  0  0  0  0  0  0  0  0
   -5.0037   -2.5161    0.3448 C   0  0  0  0  0  0  0  0  0  0  0  0
   -5.0782   -3.8812    0.0470 C   0  0  0  0  0  0  0  0  0  0  0  0
   -3.9172   -4.5952   -0.2434 C   0  0  0  0  0  0  0  0  0  0  0  0
   -2.6865   -3.9440   -0.2410 C   0  0  0  0  0  0  0  0  0  0  0  0
   -1.4523   -4.6915   -0.5534 C   0  0  0  0  0  0  0  0  0  0  0  0
   -0.3127   -4.0501   -0.5313 N   0  0  0  0  0  0  0  0  0  0  0  0
    0.8593   -4.6743   -0.8081 C   0  0  0  0  0  0  0  0  0  0  0  0
    2.0661   -3.9839   -0.7816 C   0  0  0  0  0  0  0  0  0  0  0  0
    3.2519   -4.6571   -1.0709 C   0  0  0  0  0  0  0  0  0  0  0  0
    3.2273   -6.0315   -1.3887 C   0  0  0  0  0  0  0  0  0  0  0  0
    2.0312   -6.7235   -1.4163 C   0  0  0  0  0  0  0  0  0  0  0  0
    0.8451   -6.0555   -1.1286 C   0  0  0  0  0  0  0  0  0  0  0  0
   -0.4506   -6.7495   -1.1455 C   0  0  0  0  0  0  0  0  0  0  0  0
   -1.5537   -6.0253   -0.8474 N   0  0  0  0  0  0  0  0  0  0  0  0
   -0.5278   -7.9345   -1.4136 O   0  0  0  0  0  0  0  0  0  0  0  0
    4.5439   -6.3909   -1.6194 N   0  0  0  0  0  0  0  0  0  0  0  0
    5.3030   -5.2773   -1.4442 C   0  0  0  0  0  0  0  0  0  0  0  0
    4.5507   -4.2647   -1.1242 N   0  0  0  0  0  0  0  0  0  0  0  0
    5.0290   -7.7241   -1.9845 C   0  0  0  0  0  0  0  0  0  0  0  0
    4.9265   -7.9047   -3.4771 C   0  0  0  0  0  0  0  0  0  0  0  0
    3.7704   -8.4203   -4.0327 C   0  0  0  0  0  0  0  0  0  0  0  0
    3.6750   -8.5858   -5.4014 C   0  0  0  0  0  0  0  0  0  0  0  0
    4.7380   -8.2351   -6.2163 C   0  0  0  0  0  0  0  0  0  0  0  0
    5.8955   -7.7188   -5.6588 C   0  0  0  0  0  0  0  0  0  0  0  0
    5.9865   -7.5492   -4.2902 C   0  0  0  0  0  0  0  0  0  0  0  0
    4.6461   -8.3970   -7.5544 F   0  0  0  0  0  0  0  0  0  0  0  0
   -6.3865   -4.5652    0.0408 C   0  0  0  0  0  0  0  0  0  0  0  0
   -6.4824   -5.6979    0.4722 O   0  0  0  0  0  0  0  0  0  0  0  0
   -7.4747   -3.9340   -0.4429 N   0  0  0  0  0  0  0  0  0  0  0  0
   -7.3603   -2.6180   -1.0903 C   0  0  0  0  0  0  0  0  0  0  0  0
   -8.0869   -2.6750   -2.4382 C   0  0  0  0  0  0  0  0  0  0  0  0
   -9.4673   -3.1302   -2.2302 N   0  3  0  0  0  0  0  0  0  0  0  0
   -9.4684   -4.5079   -1.7222 C   0  0  0  0  0  0  0  0  0  0  0  0
   -8.8096   -4.5442   -0.3439 C   0  0  0  0  0  0  0  0  0  0  0  0
  -10.1950   -3.0797   -3.5053 C   0  0  0  0  0  0  0  0  0  0  0  0
  -11.6645   -3.4338   -3.2682 C   0  0  0  0  0  0  0  0  0  0  0  0
    1.0036    1.8728    0.6710 H   0  0  0  0  0  0  0  0  0  0  0  0
   -0.6267    2.0224   -0.0276 H   0  0  0  0  0  0  0  0  0  0  0  0
   -0.4302    1.6274    1.6968 H   0  0  0  0  0  0  0  0  0  0  0  0
    0.4094   -0.1449   -0.6422 H   0  0  0  0  0  0  0  0  0  0  0  0
    0.6059   -0.5400    1.0822 H   0  0  0  0  0  0  0  0  0  0  0  0
   -1.8505   -0.4055    1.3930 H   0  0  0  0  0  0  0  0  0  0  0  0
   -2.0470   -0.0105   -0.3314 H   0  0  0  0  0  0  0  0  0  0  0  0
   -3.7349   -0.8200    0.5837 H   0  0  0  0  0  0  0  0  0  0  0  0
   -5.9045   -1.9645    0.5696 H   0  0  0  0  0  0  0  0  0  0  0  0
   -3.9723   -5.6489   -0.4736 H   0  0  0  0  0  0  0  0  0  0  0  0
    2.0845   -2.9318   -0.5386 H   0  0  0  0  0  0  0  0  0  0  0  0
    2.0173   -7.7756   -1.6598 H   0  0  0  0  0  0  0  0  0  0  0  0
    6.3765   -5.2382   -1.5552 H   0  0  0  0  0  0  0  0  0  0  0  0
    6.0693   -7.8292   -1.6764 H   0  0  0  0  0  0  0  0  0  0  0  0
    4.4239   -8.4805   -1.4846 H   0  0  0  0  0  0  0  0  0  0  0  0
    2.9415   -8.6941   -3.3968 H   0  0  0  0  0  0  0  0  0  0  0  0
    2.7718   -8.9890   -5.8351 H   0  0  0  0  0  0  0  0  0  0  0  0
    6.7254   -7.4452   -6.2934 H   0  0  0  0  0  0  0  0  0  0  0  0
    6.8876   -7.1424   -3.8555 H   0  0  0  0  0  0  0  0  0  0  0  0
   -7.8197   -1.8578   -0.4585 H   0  0  0  0  0  0  0  0  0  0  0  0
   -6.3091   -2.3788   -1.2507 H   0  0  0  0  0  0  0  0  0  0  0  0
   -8.0954   -1.6825   -2.8887 H   0  0  0  0  0  0  0  0  0  0  0  0
   -7.5707   -3.3703   -3.1001 H   0  0  0  0  0  0  0  0  0  0  0  0
  -10.4950   -4.8660   -1.6452 H   0  0  0  0  0  0  0  0  0  0  0  0
   -8.9104   -5.1478   -2.4058 H   0  0  0  0  0  0  0  0  0  0  0  0
   -8.7160   -5.5779   -0.0111 H   0  0  0  0  0  0  0  0  0  0  0  0
   -9.4178   -3.9819    0.3646 H   0  0  0  0  0  0  0  0  0  0  0  0
  -10.1261   -2.0755   -3.9234 H   0  0  0  0  0  0  0  0  0  0  0  0
   -9.7570   -3.7943   -4.2021 H   0  0  0  0  0  0  0  0  0  0  0  0
  -11.7333   -4.4380   -2.8500 H   0  0  0  0  0  0  0  0  0  0  0  0
  -12.1025   -2.7192   -2.5713 H   0  0  0  0  0  0  0  0  0  0  0  0
  -12.2044   -3.3964   -4.2143 H   0  0  0  0  0  0  0  0  0  0  0  0
   -2.4241   -6.4534   -0.8455 H   0  0  0  0  0  0  0  0  0  0  0  0
   -9.9222   -2.5263   -1.5620 H   0  0  0  0  0  0  0  0  0  0  0  0
  1  2  1  0  0  0  0
  1 43  1  0  0  0  0
  1 44  1  0  0  0  0
  1 45  1  0  0  0  0
  2  3  1  0  0  0  0
  2 46  1  0  0  0  0
  2 47  1  0  0  0  0
  3  4  1  0  0  0  0
  3 48  1  0  0  0  0
  3 49  1  0  0  0  0
  4  5  1  0  0  0  0
  5 10  2  0  0  0  0
  5  6  1  0  0  0  0
  6  7  2  0  0  0  0
  6 50  1  0  0  0  0
  7  8  1  0  0  0  0
  7 51  1  0  0  0  0
  8  9  2  0  0  0  0
  8 33  1  0  0  0  0
  9 10  1  0  0  0  0
  9 52  1  0  0  0  0
 10 11  1  0  0  0  0
 11 20  1  0  0  0  0
 11 12  2  0  0  0  0
 12 13  1  0  0  0  0
 13 18  2  0  0  0  0
 13 14  1  0  0  0  0
 14 15  2  0  0  0  0
 14 53  1  0  0  0  0
 15 24  1  0  0  0  0
 15 16  1  0  0  0  0
 16 17  2  0  0  0  0
 16 22  1  0  0  0  0
 17 18  1  0  0  0  0
 17 54  1  0  0  0  0
 18 19  1  0  0  0  0
 19 20  1  0  0  0  0
 19 21  2  0  0  0  0
 20 75  1  0  0  0  0
 22 23  1  0  0  0  0
 22 25  1  0  0  0  0
 23 24  2  0  0  0  0
 23 55  1  0  0  0  0
 25 26  1  0  0  0  0
 25 56  1  0  0  0  0
 25 57  1  0  0  0  0
 26 31  2  0  0  0  0
 26 27  1  0  0  0  0
 27 28  2  0  0  0  0
 27 58  1  0  0  0  0
 28 29  1  0  0  0  0
 28 59  1  0  0  0  0
 29 30  2  0  0  0  0
 29 32  1  0  0  0  0
 30 31  1  0  0  0  0
 30 60  1  0  0  0  0
 31 61  1  0  0  0  0
 33 34  2  0  0  0  0
 33 35  1  0  0  0  0
 35 40  1  0  0  0  0
 35 36  1  0  0  0  0
 36 37  1  0  0  0  0
 36 62  1  0  0  0  0
 36 63  1  0  0  0  0
 37 38  1  0  0  0  0
 37 64  1  0  0  0  0
 37 65  1  0  0  0  0
 38 39  1  0  0  0  0
 38 41  1  0  0  0  0
 38 76  1  0  0  0  0
 39 40  1  0  0  0  0
 39 66  1  0  0  0  0
 39 67  1  0  0  0  0
 40 68  1  0  0  0  0
 40 69  1  0  0  0  0
 41 42  1  0  0  0  0
 41 70  1  0  0  0  0
 41 71  1  0  0  0  0
 42 72  1  0  0  0  0
 42 73  1  0  0  0  0
 42 74  1  0  0  0  0
M  CHG  1  38   1
M  END
$$$$
CHEMBL356178
  -OEChem-07121202283D

 76 81  0     0  0  0  0  0  0999 V2000
   -0.6166    1.4844   -0.3324 C   0  0  0  0  0  0  0  0  0  0  0  0
   -0.3014   -0.0052   -0.1820 C   0  0  0  0  0  0  0  0  0  0  0  0
    0.3882   -0.5112   -1.4506 C   0  0  0  0  0  0  0  0  0  0  0  0
    0.6827   -1.9025   -1.3101 O   0  0  0  0  0  0  0  0  0  0  0  0
    1.2987   -2.5093   -2.3533 C   0  0  0  0  0  0  0  0  0  0  0  0
    1.6200   -1.7791   -3.4906 C   0  0  0  0  0  0  0  0  0  0  0  0
    2.2458   -2.3906   -4.5533 C   0  0  0  0  0  0  0  0  0  0  0  0
    2.5626   -3.7527   -4.4964 C   0  0  0  0  0  0  0  0  0  0  0  0
    2.2452   -4.4949   -3.3613 C   0  0  0  0  0  0  0  0  0  0  0  0
    1.6174   -3.8749   -2.2828 C   0  0  0  0  0  0  0  0  0  0  0  0
    1.2835   -4.6514   -1.0743 C   0  0  0  0  0  0  0  0  0  0  0  0
    1.6124   -5.9712   -1.0394 N   0  0  0  0  0  0  0  0  0  0  0  0
    1.3156   -6.7363    0.0775 C   0  0  0  0  0  0  0  0  0  0  0  0
    1.6382   -8.0770    0.1391 C   0  0  0  0  0  0  0  0  0  0  0  0
    1.3215   -8.8112    1.2839 C   0  0  0  0  0  0  0  0  0  0  0  0
    0.6759   -8.1832    2.3686 C   0  0  0  0  0  0  0  0  0  0  0  0
    0.3526   -6.8406    2.3075 C   0  0  0  0  0  0  0  0  0  0  0  0
    0.6695   -6.1120    1.1658 C   0  0  0  0  0  0  0  0  0  0  0  0
    0.3470   -4.6781    1.0505 C   0  0  0  0  0  0  0  0  0  0  0  0
    0.6860   -4.0351   -0.0774 N   0  0  0  0  0  0  0  0  0  0  0  0
   -0.2110   -4.0889    1.9610 O   0  0  0  0  0  0  0  0  0  0  0  0
    0.5057   -9.1653    3.3289 N   0  0  0  0  0  0  0  0  0  0  0  0
    1.0286  -10.3151    2.8273 C   0  0  0  0  0  0  0  0  0  0  0  0
    1.5051  -10.1096    1.6335 N   0  0  0  0  0  0  0  0  0  0  0  0
   -0.1208   -8.9965    4.6424 C   0  0  0  0  0  0  0  0  0  0  0  0
   -1.6144   -9.1468    4.5096 C   0  0  0  0  0  0  0  0  0  0  0  0
   -2.3990   -8.0401    4.2438 C   0  0  0  0  0  0  0  0  0  0  0  0
   -3.7688   -8.1768    4.1213 C   0  0  0  0  0  0  0  0  0  0  0  0
   -4.3552   -9.4229    4.2649 C   0  0  0  0  0  0  0  0  0  0  0  0
   -3.5683  -10.5306    4.5311 C   0  0  0  0  0  0  0  0  0  0  0  0
   -2.1982  -10.3923    4.6479 C   0  0  0  0  0  0  0  0  0  0  0  0
   -5.6941   -9.5577    4.1459 F   0  0  0  0  0  0  0  0  0  0  0  0
    3.2329   -4.4030   -5.6399 C   0  0  0  0  0  0  0  0  0  0  0  0
    2.9252   -5.5344   -5.9618 O   0  0  0  0  0  0  0  0  0  0  0  0
    4.1859   -3.7426   -6.3270 N   0  0  0  0  0  0  0  0  0  0  0  0
    4.6686   -2.4277   -5.8773 C   0  0  0  0  0  0  0  0  0  0  0  0
    6.1998   -2.4615   -5.8330 C   0  0  0  0  0  0  0  0  0  0  0  0
    6.7172   -2.8820   -7.1413 N   0  3  0  0  0  0  0  0  0  0  0  0
    6.2996   -4.2610   -7.4245 C   0  0  0  0  0  0  0  0  0  0  0  0
    4.7773   -4.3189   -7.5444 C   0  0  0  0  0  0  0  0  0  0  0  0
    8.1843   -2.8086   -7.1323 C   0  0  0  0  0  0  0  0  0  0  0  0
    8.7194   -3.1258   -8.5302 C   0  0  0  0  0  0  0  0  0  0  0  0
    0.3094    2.0379   -0.4880 H   0  0  0  0  0  0  0  0  0  0  0  0
   -1.2760    1.6317   -1.1878 H   0  0  0  0  0  0  0  0  0  0  0  0
   -1.1079    1.8449    0.5713 H   0  0  0  0  0  0  0  0  0  0  0  0
    0.3580   -0.1525    0.6733 H   0  0  0  0  0  0  0  0  0  0  0  0
   -1.2274   -0.5587   -0.0265 H   0  0  0  0  0  0  0  0  0  0  0  0
   -0.2711   -0.3639   -2.3060 H   0  0  0  0  0  0  0  0  0  0  0  0
    1.3143    0.0423   -1.6062 H   0  0  0  0  0  0  0  0  0  0  0  0
    1.3777   -0.7279   -3.5413 H   0  0  0  0  0  0  0  0  0  0  0  0
    2.4929   -1.8172   -5.4345 H   0  0  0  0  0  0  0  0  0  0  0  0
    2.4886   -5.5462   -3.3155 H   0  0  0  0  0  0  0  0  0  0  0  0
    2.1324   -8.5555   -0.6935 H   0  0  0  0  0  0  0  0  0  0  0  0
   -0.1416   -6.3612    3.1395 H   0  0  0  0  0  0  0  0  0  0  0  0
    1.0468  -11.2628    3.3449 H   0  0  0  0  0  0  0  0  0  0  0  0
    0.2611   -9.7537    5.3271 H   0  0  0  0  0  0  0  0  0  0  0  0
    0.1114   -8.0049    5.0310 H   0  0  0  0  0  0  0  0  0  0  0  0
   -1.9414   -7.0682    4.1322 H   0  0  0  0  0  0  0  0  0  0  0  0
   -4.3816   -7.3120    3.9141 H   0  0  0  0  0  0  0  0  0  0  0  0
   -4.0246  -11.5030    4.6436 H   0  0  0  0  0  0  0  0  0  0  0  0
   -1.5837  -11.2569    4.8511 H   0  0  0  0  0  0  0  0  0  0  0  0
    4.3392   -1.6582   -6.5755 H   0  0  0  0  0  0  0  0  0  0  0  0
    4.2780   -2.2149   -4.8821 H   0  0  0  0  0  0  0  0  0  0  0  0
    6.5786   -1.4676   -5.5948 H   0  0  0  0  0  0  0  0  0  0  0  0
    6.5259   -3.1675   -5.0692 H   0  0  0  0  0  0  0  0  0  0  0  0
    6.7519   -4.5930   -8.3590 H   0  0  0  0  0  0  0  0  0  0  0  0
    6.6226   -4.9125   -6.6126 H   0  0  0  0  0  0  0  0  0  0  0  0
    4.4586   -5.3558   -7.6510 H   0  0  0  0  0  0  0  0  0  0  0  0
    4.4591   -3.7436   -8.4139 H   0  0  0  0  0  0  0  0  0  0  0  0
    8.4961   -1.8050   -6.8430 H   0  0  0  0  0  0  0  0  0  0  0  0
    8.5799   -3.5318   -6.4191 H   0  0  0  0  0  0  0  0  0  0  0  0
    8.4076   -4.1294   -8.8195 H   0  0  0  0  0  0  0  0  0  0  0  0
    8.3238   -2.4027   -9.2434 H   0  0  0  0  0  0  0  0  0  0  0  0
    9.8080   -3.0714   -8.5235 H   0  0  0  0  0  0  0  0  0  0  0  0
    6.3566   -2.2690   -7.8570 H   0  0  0  0  0  0  0  0  0  0  0  0
    2.0562   -6.3785   -1.7997 H   0  0  0  0  0  0  0  0  0  0  0  0
  1  2  1  0  0  0  0
  1 43  1  0  0  0  0
  1 44  1  0  0  0  0
  1 45  1  0  0  0  0
  2  3  1  0  0  0  0
  2 46  1  0  0  0  0
  2 47  1  0  0  0  0
  3  4  1  0  0  0  0
  3 48  1  0  0  0  0
  3 49  1  0  0  0  0
  4  5  1  0  0  0  0
  5 10  2  0  0  0  0
  5  6  1  0  0  0  0
  6  7  2  0  0  0  0
  6 50  1  0  0  0  0
  7  8  1  0  0  0  0
  7 51  1  0  0  0  0
  8  9  2  0  0  0  0
  8 33  1  0  0  0  0
  9 10  1  0  0  0  0
  9 52  1  0  0  0  0
 10 11  1  0  0  0  0
 11 20  2  0  0  0  0
 11 12  1  0  0  0  0
 12 13  1  0  0  0  0
 12 76  1  0  0  0  0
 13 18  2  0  0  0  0
 13 14  1  0  0  0  0
 14 15  2  0  0  0  0
 14 53  1  0  0  0  0
 15 24  1  0  0  0  0
 15 16  1  0  0  0  0
 16 17  2  0  0  0  0
 16 22  1  0  0  0  0
 17 18  1  0  0  0  0
 17 54  1  0  0  0  0
 18 19  1  0  0  0  0
 19 20  1  0  0  0  0
 19 21  2  0  0  0  0
 22 23  1  0  0  0  0
 22 25  1  0  0  0  0
 23 24  2  0  0  0  0
 23 55  1  0  0  0  0
 25 26  1  0  0  0  0
 25 56  1  0  0  0  0
 25 57  1  0  0  0  0
 26 31  2  0  0  0  0
 26 27  1  0  0  0  0
 27 28  2  0  0  0  0
 27 58  1  0  0  0  0
 28 29  1  0  0  0  0
 28 59  1  0  0  0  0
 29 30  2  0  0  0  0
 29 32  1  0  0  0  0
 30 31  1  0  0  0  0
 30 60  1  0  0  0  0
 31 61  1  0  0  0  0
 33 34  2  0  0  0  0
 33 35  1  0  0  0  0
 35 40  1  0  0  0  0
 35 36  1  0  0  0  0
 36 37  1  0  0  0  0
 36 62  1  0  0  0  0
 36 63  1  0  0  0  0
 37 38  1  0  0  0  0
 37 64  1  0  0  0  0
 37 65  1  0  0  0  0
 38 39  1  0  0  0  0
 38 41  1  0  0  0  0
 38 75  1  0  0  0  0
 39 40  1  0  0  0  0
 39 66  1  0  0  0  0
 39 67  1  0  0  0  0
 40 68  1  0  0  0  0
 40 69  1  0  0  0  0
 41 42  1  0  0  0  0
 41 70  1  0  0  0  0
 41 71  1  0  0  0  0
 42 72  1  0  0  0  0
 42 73  1  0  0  0  0
 42 74  1  0  0  0  0
M  CHG  1  38   1
M  END
$$$$
CHEMBL356178
  -OEChem-07121202283D

 75 80  0     0  0  0  0  0  0999 V2000
   -0.6129    1.4855   -0.3311 C   0  0  0  0  0  0  0  0  0  0  0  0
   -0.2987   -0.0044   -0.1810 C   0  0  0  0  0  0  0  0  0  0  0  0
    0.3906   -0.5105   -1.4498 C   0  0  0  0  0  0  0  0  0  0  0  0
    0.6840   -1.9020   -1.3096 O   0  0  0  0  0  0  0  0  0  0  0  0
    1.3000   -2.5095   -2.3537 C   0  0  0  0  0  0  0  0  0  0  0  0
    1.6216   -1.7790   -3.4903 C   0  0  0  0  0  0  0  0  0  0  0  0
    2.2471   -2.3908   -4.5535 C   0  0  0  0  0  0  0  0  0  0  0  0
    2.5626   -3.7523   -4.4952 C   0  0  0  0  0  0  0  0  0  0  0  0
    2.2433   -4.4931   -3.3580 C   0  0  0  0  0  0  0  0  0  0  0  0
    1.6169   -3.8726   -2.2832 C   0  0  0  0  0  0  0  0  0  0  0  0
    1.2804   -4.6516   -1.0688 C   0  0  0  0  0  0  0  0  0  0  0  0
    1.5966   -5.9317   -1.0311 N   0  0  0  0  0  0  0  0  0  0  0  0
    1.3082   -6.6712    0.0519 C   0  0  0  0  0  0  0  0  0  0  0  0
    1.6328   -8.0270    0.1161 C   0  0  0  0  0  0  0  0  0  0  0  0
    1.3163   -8.7548    1.2567 C   0  0  0  0  0  0  0  0  0  0  0  0
    0.6693   -8.1265    2.3455 C   0  0  0  0  0  0  0  0  0  0  0  0
    0.3450   -6.7882    2.2928 C   0  0  0  0  0  0  0  0  0  0  0  0
    0.6581   -6.0473    1.1505 C   0  0  0  0  0  0  0  0  0  0  0  0
    0.3445   -4.6699    1.0500 C   0  0  0  0  0  0  0  0  0  0  0  0
    0.6753   -4.0284   -0.0573 N   0  0  0  0  0  0  0  0  0  0  0  0
   -0.2742   -4.0247    2.0655 O   0  5  0  0  0  0  0  0  0  0  0  0
    0.5001   -9.1120    3.3041 N   0  0  0  0  0  0  0  0  0  0  0  0
    1.0234  -10.2612    2.7992 C   0  0  0  0  0  0  0  0  0  0  0  0
    1.4994  -10.0554    1.6063 N   0  0  0  0  0  0  0  0  0  0  0  0
   -0.1263   -8.9469    4.6181 C   0  0  0  0  0  0  0  0  0  0  0  0
   -1.6198   -9.0981    4.4852 C   0  0  0  0  0  0  0  0  0  0  0  0
   -2.4053   -7.9914    4.2223 C   0  0  0  0  0  0  0  0  0  0  0  0
   -3.7750   -8.1289    4.0997 C   0  0  0  0  0  0  0  0  0  0  0  0
   -4.3604   -9.3757    4.2404 C   0  0  0  0  0  0  0  0  0  0  0  0
   -3.5726  -10.4835    4.5037 C   0  0  0  0  0  0  0  0  0  0  0  0
   -2.2026  -10.3444    4.6206 C   0  0  0  0  0  0  0  0  0  0  0  0
   -5.6993   -9.5112    4.1212 F   0  0  0  0  0  0  0  0  0  0  0  0
    3.2328   -4.4046   -5.6375 C   0  0  0  0  0  0  0  0  0  0  0  0
    2.9247   -5.5363   -5.9576 O   0  0  0  0  0  0  0  0  0  0  0  0
    4.1863   -3.7457   -6.3253 N   0  0  0  0  0  0  0  0  0  0  0  0
    4.6695   -2.4303   -5.8775 C   0  0  0  0  0  0  0  0  0  0  0  0
    6.2007   -2.4648   -5.8328 C   0  0  0  0  0  0  0  0  0  0  0  0
    6.7181   -2.8876   -7.1403 N   0  3  0  0  0  0  0  0  0  0  0  0
    6.3000   -4.2668   -7.4215 C   0  0  0  0  0  0  0  0  0  0  0  0
    4.7777   -4.3241   -7.5417 C   0  0  0  0  0  0  0  0  0  0  0  0
    8.1853   -2.8149   -7.1311 C   0  0  0  0  0  0  0  0  0  0  0  0
    8.7206   -3.1345   -8.5283 C   0  0  0  0  0  0  0  0  0  0  0  0
    0.3136    2.0383   -0.4865 H   0  0  0  0  0  0  0  0  0  0  0  0
   -1.2721    1.6334   -1.1864 H   0  0  0  0  0  0  0  0  0  0  0  0
   -1.1039    1.8461    0.5728 H   0  0  0  0  0  0  0  0  0  0  0  0
    0.3606   -0.1523    0.6743 H   0  0  0  0  0  0  0  0  0  0  0  0
   -1.2251   -0.5572   -0.0256 H   0  0  0  0  0  0  0  0  0  0  0  0
   -0.2687   -0.3626   -2.3051 H   0  0  0  0  0  0  0  0  0  0  0  0
    1.3170    0.0423   -1.6052 H   0  0  0  0  0  0  0  0  0  0  0  0
    1.3799   -0.7276   -3.5406 H   0  0  0  0  0  0  0  0  0  0  0  0
    2.4945   -1.8180   -5.4350 H   0  0  0  0  0  0  0  0  0  0  0  0
    2.4854   -5.5445   -3.3107 H   0  0  0  0  0  0  0  0  0  0  0  0
    2.1267   -8.5075   -0.7156 H   0  0  0  0  0  0  0  0  0  0  0  0
   -0.1495   -6.3156    3.1285 H   0  0  0  0  0  0  0  0  0  0  0  0
    1.0416  -11.2097    3.3154 H   0  0  0  0  0  0  0  0  0  0  0  0
    0.2564   -9.7055    5.3009 H   0  0  0  0  0  0  0  0  0  0  0  0
    0.1053   -7.9562    5.0091 H   0  0  0  0  0  0  0  0  0  0  0  0
   -1.9485   -7.0188    4.1129 H   0  0  0  0  0  0  0  0  0  0  0  0
   -4.3885   -7.2640    3.8946 H   0  0  0  0  0  0  0  0  0  0  0  0
   -4.0282  -11.4564    4.6139 H   0  0  0  0  0  0  0  0  0  0  0  0
   -1.5874  -11.2090    4.8216 H   0  0  0  0  0  0  0  0  0  0  0  0
    4.3406   -1.6618   -6.5770 H   0  0  0  0  0  0  0  0  0  0  0  0
    4.2788   -2.2158   -4.8828 H   0  0  0  0  0  0  0  0  0  0  0  0
    6.5798   -1.4707   -5.5961 H   0  0  0  0  0  0  0  0  0  0  0  0
    6.5262   -3.1698   -5.0679 H   0  0  0  0  0  0  0  0  0  0  0  0
    6.7523   -4.6005   -8.3554 H   0  0  0  0  0  0  0  0  0  0  0  0
    6.6225   -4.9172   -6.6085 H   0  0  0  0  0  0  0  0  0  0  0  0
    4.4585   -5.3610   -7.6468 H   0  0  0  0  0  0  0  0  0  0  0  0
    4.4600   -3.7500   -8.4121 H   0  0  0  0  0  0  0  0  0  0  0  0
    8.4975   -1.8110   -6.8433 H   0  0  0  0  0  0  0  0  0  0  0  0
    8.5804   -3.5371   -6.4167 H   0  0  0  0  0  0  0  0  0  0  0  0
    8.4084   -4.1384   -8.8162 H   0  0  0  0  0  0  0  0  0  0  0  0
    8.3255   -2.4122   -9.2428 H   0  0  0  0  0  0  0  0  0  0  0  0
    9.8092   -3.0805   -8.5215 H   0  0  0  0  0  0  0  0  0  0  0  0
    6.3580   -2.2755   -7.8571 H   0  0  0  0  0  0  0  0  0  0  0  0
  1  2  1  0  0  0  0
  1 43  1  0  0  0  0
  1 44  1  0  0  0  0
  1 45  1  0  0  0  0
  2  3  1  0  0  0  0
  2 46  1  0  0  0  0
  2 47  1  0  0  0  0
  3  4  1  0  0  0  0
  3 48  1  0  0  0  0
  3 49  1  0  0  0  0
  4  5  1  0  0  0  0
  5 10  2  0  0  0  0
  5  6  1  0  0  0  0
  6  7  2  0  0  0  0
  6 50  1  0  0  0  0
  7  8  1  0  0  0  0
  7 51  1  0  0  0  0
  8  9  2  0  0  0  0
  8 33  1  0  0  0  0
  9 10  1  0  0  0  0
  9 52  1  0  0  0  0
 10 11  1  0  0  0  0
 11 20  2  0  0  0  0
 11 12  1  0  0  0  0
 12 13  2  0  0  0  0
 13 18  1  0  0  0  0
 13 14  1  0  0  0  0
 14 15  2  0  0  0  0
 14 53  1  0  0  0  0
 15 24  1  0  0  0  0
 15 16  1  0  0  0  0
 16 17  2  0  0  0  0
 16 22  1  0  0  0  0
 17 18  1  0  0  0  0
 17 54  1  0  0  0  0
 18 19  2  0  0  0  0
 19 20  1  0  0  0  0
 19 21  1  0  0  0  0
 22 23  1  0  0  0  0
 22 25  1  0  0  0  0
 23 24  2  0  0  0  0
 23 55  1  0  0  0  0
 25 26  1  0  0  0  0
 25 56  1  0  0  0  0
 25 57  1  0  0  0  0
 26 31  2  0  0  0  0
 26 27  1  0  0  0  0
 27 28  2  0  0  0  0
 27 58  1  0  0  0  0
 28 29  1  0  0  0  0
 28 59  1  0  0  0  0
 29 30  2  0  0  0  0
 29 32  1  0  0  0  0
 30 31  1  0  0  0  0
 30 60  1  0  0  0  0
 31 61  1  0  0  0  0
 33 34  2  0  0  0  0
 33 35  1  0  0  0  0
 35 40  1  0  0  0  0
 35 36  1  0  0  0  0
 36 37  1  0  0  0  0
 36 62  1  0  0  0  0
 36 63  1  0  0  0  0
 37 38  1  0  0  0  0
 37 64  1  0  0  0  0
 37 65  1  0  0  0  0
 38 39  1  0  0  0  0
 38 41  1  0  0  0  0
 38 75  1  0  0  0  0
 39 40  1  0  0  0  0
 39 66  1  0  0  0  0
 39 67  1  0  0  0  0
 40 68  1  0  0  0  0
 40 69  1  0  0  0  0
 41 42  1  0  0  0  0
 41 70  1  0  0  0  0
 41 71  1  0  0  0  0
 42 72  1  0  0  0  0
 42 73  1  0  0  0  0
 42 74  1  0  0  0  0
M  CHG  2  21  -1  38   1
M  END
$$$$
CHEMBL356178
  -OEChem-07121202283D

 75 80  0     0  0  0  0  0  0999 V2000
   -0.6427    1.4764   -0.3424 C   0  0  0  0  0  0  0  0  0  0  0  0
   -0.3122   -0.0093   -0.1858 C   0  0  0  0  0  0  0  0  0  0  0  0
    0.3749   -0.5156   -1.4555 C   0  0  0  0  0  0  0  0  0  0  0  0
    0.6835   -1.9031   -1.3092 O   0  0  0  0  0  0  0  0  0  0  0  0
    1.2996   -2.5100   -2.3531 C   0  0  0  0  0  0  0  0  0  0  0  0
    1.6072   -1.7830   -3.4957 C   0  0  0  0  0  0  0  0  0  0  0  0
    2.2325   -2.3945   -4.5592 C   0  0  0  0  0  0  0  0  0  0  0  0
    2.5625   -3.7527   -4.4963 C   0  0  0  0  0  0  0  0  0  0  0  0
    2.2587   -4.4912   -3.3543 C   0  0  0  0  0  0  0  0  0  0  0  0
    1.6315   -3.8712   -2.2768 C   0  0  0  0  0  0  0  0  0  0  0  0
    1.3115   -4.6447   -1.0607 C   0  0  0  0  0  0  0  0  0  0  0  0
    0.7127   -4.0326   -0.0723 N   0  0  0  0  0  0  0  0  0  0  0  0
    0.3893   -4.6818    1.0739 C   0  0  0  0  0  0  0  0  0  0  0  0
   -0.2479   -4.0224    2.1193 C   0  0  0  0  0  0  0  0  0  0  0  0
   -0.5660   -4.7207    3.2829 C   0  0  0  0  0  0  0  0  0  0  0  0
   -0.2430   -6.0893    3.3989 C   0  0  0  0  0  0  0  0  0  0  0  0
    0.3899   -6.7506    2.3633 C   0  0  0  0  0  0  0  0  0  0  0  0
    0.7097   -6.0574    1.2002 C   0  0  0  0  0  0  0  0  0  0  0  0
    1.3825   -6.7183    0.0727 C   0  0  0  0  0  0  0  0  0  0  0  0
    1.6507   -5.9712   -1.0227 N   0  0  0  0  0  0  0  0  0  0  0  0
    1.6835   -7.8969    0.1212 O   0  0  0  0  0  0  0  0  0  0  0  0
   -0.6846   -6.4781    4.6517 N   0  0  0  0  0  0  0  0  0  0  0  0
   -1.2402   -5.3867    5.2407 C   0  0  0  0  0  0  0  0  0  0  0  0
   -1.1718   -4.3603    4.4434 N   0  0  0  0  0  0  0  0  0  0  0  0
   -0.5737   -7.8176    5.2346 C   0  0  0  0  0  0  0  0  0  0  0  0
    0.7784   -7.9735    5.8817 C   0  0  0  0  0  0  0  0  0  0  0  0
    1.8458   -8.4517    5.1447 C   0  0  0  0  0  0  0  0  0  0  0  0
    3.0863   -8.5946    5.7368 C   0  0  0  0  0  0  0  0  0  0  0  0
    3.2598   -8.2587    7.0688 C   0  0  0  0  0  0  0  0  0  0  0  0
    2.1900   -7.7799    7.8059 C   0  0  0  0  0  0  0  0  0  0  0  0
    0.9517   -7.6328    7.2102 C   0  0  0  0  0  0  0  0  0  0  0  0
    4.4719   -8.3984    7.6488 F   0  0  0  0  0  0  0  0  0  0  0  0
    3.2320   -4.4035   -5.6400 C   0  0  0  0  0  0  0  0  0  0  0  0
    2.9239   -5.5348   -5.9614 O   0  0  0  0  0  0  0  0  0  0  0  0
    4.1849   -3.7435   -6.3277 N   0  0  0  0  0  0  0  0  0  0  0  0
    4.6668   -2.4288   -5.8776 C   0  0  0  0  0  0  0  0  0  0  0  0
    6.1975   -2.4668   -5.8148 C   0  0  0  0  0  0  0  0  0  0  0  0
    6.7266   -2.9119   -7.1109 N   0  0  0  0  0  0  0  0  0  0  0  0
    6.2969   -4.2823   -7.4196 C   0  0  0  0  0  0  0  0  0  0  0  0
    4.7747   -4.3215   -7.5447 C   0  0  0  0  0  0  0  0  0  0  0  0
    8.1907   -2.7980   -7.1490 C   0  0  0  0  0  0  0  0  0  0  0  0
    8.6831   -3.0285   -8.5791 C   0  0  0  0  0  0  0  0  0  0  0  0
    0.2771    2.0379   -0.5063 H   0  0  0  0  0  0  0  0  0  0  0  0
   -1.3083    1.6126   -1.1948 H   0  0  0  0  0  0  0  0  0  0  0  0
   -1.1322    1.8371    0.5622 H   0  0  0  0  0  0  0  0  0  0  0  0
    0.3534   -0.1455    0.6666 H   0  0  0  0  0  0  0  0  0  0  0  0
   -1.2320   -0.5707   -0.0218 H   0  0  0  0  0  0  0  0  0  0  0  0
   -0.2907   -0.3793   -2.3079 H   0  0  0  0  0  0  0  0  0  0  0  0
    1.2947    0.0459   -1.6195 H   0  0  0  0  0  0  0  0  0  0  0  0
    1.3547   -0.7344   -3.5505 H   0  0  0  0  0  0  0  0  0  0  0  0
    2.4687   -1.8238   -5.4451 H   0  0  0  0  0  0  0  0  0  0  0  0
    2.5125   -5.5398   -3.3036 H   0  0  0  0  0  0  0  0  0  0  0  0
   -0.4946   -2.9747    2.0302 H   0  0  0  0  0  0  0  0  0  0  0  0
    0.6349   -7.7983    2.4565 H   0  0  0  0  0  0  0  0  0  0  0  0
   -1.6757   -5.3729    6.2289 H   0  0  0  0  0  0  0  0  0  0  0  0
   -1.3531   -7.9533    5.9844 H   0  0  0  0  0  0  0  0  0  0  0  0
   -0.6896   -8.5658    4.4505 H   0  0  0  0  0  0  0  0  0  0  0  0
    1.7101   -8.7140    4.1058 H   0  0  0  0  0  0  0  0  0  0  0  0
    3.9199   -8.9685    5.1609 H   0  0  0  0  0  0  0  0  0  0  0  0
    2.3242   -7.5178    8.8450 H   0  0  0  0  0  0  0  0  0  0  0  0
    0.1182   -7.2551    7.7838 H   0  0  0  0  0  0  0  0  0  0  0  0
    4.3482   -1.6610   -6.5826 H   0  0  0  0  0  0  0  0  0  0  0  0
    4.2651   -2.2106   -4.8881 H   0  0  0  0  0  0  0  0  0  0  0  0
    6.5771   -1.4701   -5.5899 H   0  0  0  0  0  0  0  0  0  0  0  0
    6.5124   -3.1608   -5.0356 H   0  0  0  0  0  0  0  0  0  0  0  0
    6.7487   -4.6024   -8.3585 H   0  0  0  0  0  0  0  0  0  0  0  0
    6.6105   -4.9511   -6.6180 H   0  0  0  0  0  0  0  0  0  0  0  0
    4.4443   -5.3542   -7.6569 H   0  0  0  0  0  0  0  0  0  0  0  0
    4.4667   -3.7392   -8.4131 H   0  0  0  0  0  0  0  0  0  0  0  0
    8.4864   -1.8022   -6.8189 H   0  0  0  0  0  0  0  0  0  0  0  0
    8.6305   -3.5453   -6.4884 H   0  0  0  0  0  0  0  0  0  0  0  0
    9.7695   -2.9440   -8.6073 H   0  0  0  0  0  0  0  0  0  0  0  0
    8.3874   -4.0243   -8.9092 H   0  0  0  0  0  0  0  0  0  0  0  0
    8.2433   -2.2813   -9.2396 H   0  0  0  0  0  0  0  0  0  0  0  0
    2.0904   -6.3772   -1.7861 H   0  0  0  0  0  0  0  0  0  0  0  0
  1  2  1  0  0  0  0
  1 43  1  0  0  0  0
  1 44  1  0  0  0  0
  1 45  1  0  0  0  0
  2  3  1  0  0  0  0
  2 46  1  0  0  0  0
  2 47  1  0  0  0  0
  3  4  1  0  0  0  0
  3 48  1  0  0  0  0
  3 49  1  0  0  0  0
  4  5  1  0  0  0  0
  5 10  2  0  0  0  0
  5  6  1  0  0  0  0
  6  7  2  0  0  0  0
  6 50  1  0  0  0  0
  7  8  1  0  0  0  0
  7 51  1  0  0  0  0
  8  9  2  0  0  0  0
  8 33  1  0  0  0  0
  9 10  1  0  0  0  0
  9 52  1  0  0  0  0
 10 11  1  0  0  0  0
 11 20  1  0  0  0  0
 11 12  2  0  0  0  0
 12 13  1  0  0  0  0
 13 18  2  0  0  0  0
 13 14  1  0  0  0  0
 14 15  2  0  0  0  0
 14 53  1  0  0  0  0
 15 24  1  0  0  0  0
 15 16  1  0  0  0  0
 16 17  2  0  0  0  0
 16 22  1  0  0  0  0
 17 18  1  0  0  0  0
 17 54  1  0  0  0  0
 18 19  1  0  0  0  0
 19 20  1  0  0  0  0
 19 21  2  0  0  0  0
 20 75  1  0  0  0  0
 22 23  1  0  0  0  0
 22 25  1  0  0  0  0
 23 24  2  0  0  0  0
 23 55  1  0  0  0  0
 25 26  1  0  0  0  0
 25 56  1  0  0  0  0
 25 57  1  0  0  0  0
 26 31  2  0  0  0  0
 26 27  1  0  0  0  0
 27 28  2  0  0  0  0
 27 58  1  0  0  0  0
 28 29  1  0  0  0  0
 28 59  1  0  0  0  0
 29 30  2  0  0  0  0
 29 32  1  0  0  0  0
 30 31  1  0  0  0  0
 30 60  1  0  0  0  0
 31 61  1  0  0  0  0
 33 34  2  0  0  0  0
 33 35  1  0  0  0  0
 35 40  1  0  0  0  0
 35 36  1  0  0  0  0
 36 37  1  0  0  0  0
 36 62  1  0  0  0  0
 36 63  1  0  0  0  0
 37 38  1  0  0  0  0
 37 64  1  0  0  0  0
 37 65  1  0  0  0  0
 38 39  1  0  0  0  0
 38 41  1  0  0  0  0
 39 40  1  0  0  0  0
 39 66  1  0  0  0  0
 39 67  1  0  0  0  0
 40 68  1  0  0  0  0
 40 69  1  0  0  0  0
 41 42  1  0  0  0  0
 41 70  1  0  0  0  0
 41 71  1  0  0  0  0
 42 72  1  0  0  0  0
 42 73  1  0  0  0  0
 42 74  1  0  0  0  0
M  END
$$$$
CHEMBL558729
  -OEChem-07121202283D

 64 67  0     0  0  0  0  0  0999 V2000
   -0.0187    1.5258    0.0104 C   0  0  0  0  0  0  0  0  0  0  0  0
    0.0021   -0.0041    0.0020 C   0  0  0  0  0  0  0  0  0  0  0  0
    0.7182   -0.4975   -1.2568 C   0  0  0  0  0  0  0  0  0  0  0  0
    0.7376   -1.9263   -1.2646 O   0  0  0  0  0  0  0  0  0  0  0  0
    1.3873   -2.4925   -2.4045 C   0  0  0  0  0  0  0  0  0  0  0  0
    1.3486   -4.0190   -2.3077 C   0  0  0  0  0  0  0  0  0  0  0  0
   -0.0404   -4.4782   -2.3855 N   0  0  0  0  0  0  0  0  0  0  0  0
   -0.7966   -4.6143   -1.2385 C   0  0  0  0  0  0  0  0  0  0  0  0
   -2.1305   -5.0566   -1.3268 C   0  0  0  0  0  0  0  0  0  0  0  0
   -2.8850   -5.1892   -0.1484 C   0  0  0  0  0  0  0  0  0  0  0  0
   -2.2913   -4.8819    1.0447 C   0  0  0  0  0  0  0  0  0  0  0  0
   -0.9627   -4.4480    1.0625 C   0  0  0  0  0  0  0  0  0  0  0  0
   -0.2656   -4.3291   -0.0588 N   0  0  0  0  0  0  0  0  0  0  0  0
   -0.3225   -4.1159    2.3565 C   0  0  0  0  0  0  0  0  0  0  0  0
    0.9689   -3.5753    2.3921 C   0  0  0  0  0  0  0  0  0  0  0  0
    1.5238   -3.2821    3.6221 C   0  0  0  0  0  0  0  0  0  0  0  0
    0.7884   -3.5310    4.7759 C   0  0  0  0  0  0  0  0  0  0  0  0
   -0.4298   -4.0432    4.7085 N   0  0  0  0  0  0  0  0  0  0  0  0
   -0.9986   -4.3315    3.5553 C   0  0  0  0  0  0  0  0  0  0  0  0
    1.3275   -3.2453    5.9870 O   0  0  0  0  0  0  0  0  0  0  0  0
    0.5247   -3.5226    7.1362 C   0  0  0  0  0  0  0  0  0  0  0  0
   -2.6840   -5.3512   -2.5190 N   0  0  0  0  0  0  0  0  0  0  0  0
   -1.9966   -5.2338   -3.6274 C   0  0  0  0  0  0  0  0  0  0  0  0
   -0.5985   -4.7681   -3.5803 C   0  0  0  0  0  0  0  0  0  0  0  0
    0.0464   -4.6512   -4.6059 O   0  0  0  0  0  0  0  0  0  0  0  0
   -2.5836   -5.5415   -4.8424 N   0  0  0  0  0  0  0  0  0  0  0  0
   -3.9746   -5.9988   -4.8889 C   0  0  0  0  0  0  0  0  0  0  0  0
   -4.3745   -6.2684   -6.3409 C   0  0  0  0  0  0  0  0  0  0  0  0
   -4.3646   -4.9541   -7.1276 C   0  0  0  0  0  0  0  0  0  0  0  0
   -4.8415   -5.2208   -8.5577 C   0  0  0  0  0  0  0  0  0  0  0  0
   -6.1461   -5.8030   -8.5226 O   0  0  0  0  0  0  0  0  0  0  0  0
   -6.2071   -7.0573   -7.8406 C   0  0  0  0  0  0  0  0  0  0  0  0
   -5.7850   -6.8644   -6.3817 C   0  0  0  0  0  0  0  0  0  0  0  0
    1.0039    1.9031    0.0027 H   0  0  0  0  0  0  0  0  0  0  0  0
   -0.5459    1.8868   -0.8726 H   0  0  0  0  0  0  0  0  0  0  0  0
   -0.5289    1.8773    0.9072 H   0  0  0  0  0  0  0  0  0  0  0  0
    0.5293   -0.3651    0.8851 H   0  0  0  0  0  0  0  0  0  0  0  0
   -1.0205   -0.3814    0.0098 H   0  0  0  0  0  0  0  0  0  0  0  0
    0.1910   -0.1364   -2.1398 H   0  0  0  0  0  0  0  0  0  0  0  0
    1.7408   -0.1202   -1.2645 H   0  0  0  0  0  0  0  0  0  0  0  0
    0.8740   -2.1729   -3.3114 H   0  0  0  0  0  0  0  0  0  0  0  0
    2.4238   -2.1566   -2.4361 H   0  0  0  0  0  0  0  0  0  0  0  0
    1.9203   -4.4498   -3.1297 H   0  0  0  0  0  0  0  0  0  0  0  0
    1.7828   -4.3340   -1.3589 H   0  0  0  0  0  0  0  0  0  0  0  0
   -3.9105   -5.5258   -0.1843 H   0  0  0  0  0  0  0  0  0  0  0  0
   -2.8456   -4.9734    1.9671 H   0  0  0  0  0  0  0  0  0  0  0  0
    1.5175   -3.3926    1.4800 H   0  0  0  0  0  0  0  0  0  0  0  0
    2.5176   -2.8645    3.6873 H   0  0  0  0  0  0  0  0  0  0  0  0
   -1.9966   -4.7438    3.5397 H   0  0  0  0  0  0  0  0  0  0  0  0
   -0.3980   -2.9449    7.0828 H   0  0  0  0  0  0  0  0  0  0  0  0
    0.2866   -4.5859    7.1651 H   0  0  0  0  0  0  0  0  0  0  0  0
    1.0733   -3.2485    8.0374 H   0  0  0  0  0  0  0  0  0  0  0  0
   -2.0740   -5.4543   -5.6632 H   0  0  0  0  0  0  0  0  0  0  0  0
   -4.0752   -6.9157   -4.3082 H   0  0  0  0  0  0  0  0  0  0  0  0
   -4.6240   -5.2302   -4.4699 H   0  0  0  0  0  0  0  0  0  0  0  0
   -3.6697   -6.9686   -6.7893 H   0  0  0  0  0  0  0  0  0  0  0  0
   -5.0321   -4.2378   -6.6486 H   0  0  0  0  0  0  0  0  0  0  0  0
   -3.3521   -4.5510   -7.1505 H   0  0  0  0  0  0  0  0  0  0  0  0
   -4.8772   -4.2817   -9.1100 H   0  0  0  0  0  0  0  0  0  0  0  0
   -4.1508   -5.9058   -9.0494 H   0  0  0  0  0  0  0  0  0  0  0  0
   -7.2266   -7.4413   -7.8764 H   0  0  0  0  0  0  0  0  0  0  0  0
   -5.5343   -7.7664   -8.3230 H   0  0  0  0  0  0  0  0  0  0  0  0
   -5.7884   -7.8274   -5.8712 H   0  0  0  0  0  0  0  0  0  0  0  0
   -6.4812   -6.1867   -5.8877 H   0  0  0  0  0  0  0  0  0  0  0  0
  1  2  1  0  0  0  0
  1 34  1  0  0  0  0
  1 35  1  0  0  0  0
  1 36  1  0  0  0  0
  2  3  1  0  0  0  0
  2 37  1  0  0  0  0
  2 38  1  0  0  0  0
  3  4  1  0  0  0  0
  3 39  1  0  0  0  0
  3 40  1  0  0  0  0
  4  5  1  0  0  0  0
  5  6  1  0  0  0  0
  5 41  1  0  0  0  0
  5 42  1  0  0  0  0
  6  7  1  0  0  0  0
  6 43  1  0  0  0  0
  6 44  1  0  0  0  0
  7 24  1  0  0  0  0
  7  8  1  0  0  0  0
  8 13  2  0  0  0  0
  8  9  1  0  0  0  0
  9 10  2  0  0  0  0
  9 22  1  0  0  0  0
 10 11  1  0  0  0  0
 10 45  1  0  0  0  0
 11 12  2  0  0  0  0
 11 46  1  0  0  0  0
 12 13  1  0  0  0  0
 12 14  1  0  0  0  0
 14 19  2  0  0  0  0
 14 15  1  0  0  0  0
 15 16  2  0  0  0  0
 15 47  1  0  0  0  0
 16 17  1  0  0  0  0
 16 48  1  0  0  0  0
 17 18  2  0  0  0  0
 17 20  1  0  0  0  0
 18 19  1  0  0  0  0
 19 49  1  0  0  0  0
 20 21  1  0  0  0  0
 21 50  1  0  0  0  0
 21 51  1  0  0  0  0
 21 52  1  0  0  0  0
 22 23  2  0  0  0  0
 23 24  1  0  0  0  0
 23 26  1  0  0  0  0
 24 25  2  0  0  0  0
 26 27  1  0  0  0  0
 26 53  1  0  0  0  0
 27 28  1  0  0  0  0
 27 54  1  0  0  0  0
 27 55  1  0  0  0  0
 28 33  1  0  0  0  0
 28 29  1  0  0  0  0
 28 56  1  0  0  0  0
 29 30  1  0  0  0  0
 29 57  1  0  0  0  0
 29 58  1  0  0  0  0
 30 31  1  0  0  0  0
 30 59  1  0  0  0  0
 30 60  1  0  0  0  0
 31 32  1  0  0  0  0
 32 33  1  0  0  0  0
 32 61  1  0  0  0  0
 32 62  1  0  0  0  0
 33 63  1  0  0  0  0
 33 64  1  0  0  0  0
M  END
$$$$
CHEMBL8132
  -OEChem-07121202283D

 51 54  0     1  0  0  0  0  0999 V2000
   -0.5480    2.2944    0.5455 C   0  0  0  0  0  0  0  0  0  0  0  0
   -0.3154    0.7850    0.4533 C   0  0  0  0  0  0  0  0  0  0  0  0
   -1.6053    0.0973    0.3553 N   0  0  0  0  0  0  0  0  0  0  0  0
   -2.3506   -0.3450    1.4165 C   0  0  0  0  0  0  0  0  0  0  0  0
   -3.5078   -0.9430    0.8692 C   0  0  0  0  0  0  0  0  0  0  0  0
   -3.3899   -0.8212   -0.5806 C   0  0  0  0  0  0  0  0  0  0  0  0
   -2.2719   -0.2055   -0.8352 N   0  0  0  0  0  0  0  0  0  0  0  0
   -4.4731   -1.4947    1.7201 C   0  0  0  0  0  0  0  0  0  0  0  0
   -4.2381   -1.4251    3.1128 C   0  0  0  0  0  0  0  0  0  0  0  0
   -5.1580   -1.9556    4.0248 C   0  0  0  0  0  0  0  0  0  0  0  0
   -4.8965   -1.8710    5.3845 C   0  0  0  0  0  0  0  0  0  0  0  0
   -3.7160   -1.2568    5.8442 C   0  0  0  0  0  0  0  0  0  0  0  0
   -2.8155   -0.7385    4.9734 C   0  0  0  0  0  0  0  0  0  0  0  0
   -3.0505   -0.8078    3.5847 C   0  0  0  0  0  0  0  0  0  0  0  0
   -2.1649   -0.2985    2.7265 N   0  0  0  0  0  0  0  0  0  0  0  0
   -5.8320   -2.4104    6.3249 C   0  0  0  0  0  0  0  0  0  0  0  0
   -6.5741   -2.8384    7.0710 N   0  0  0  0  0  0  0  0  0  0  0  0
   -5.6141   -2.0853    1.2174 N   0  0  0  0  0  0  0  0  0  0  0  0
   -6.0610   -1.7751   -0.1429 C   0  0  1  0  0  0  0  0  0  0  0  0
   -5.6185   -0.8323   -0.4646 H   0  0  0  0  0  0  0  0  0  0  0  0
   -5.6235   -2.8935   -1.0908 C   0  0  0  0  0  0  0  0  0  0  0  0
   -7.5862   -1.6562   -0.1640 C   0  0  0  0  0  0  0  0  0  0  0  0
   -8.2073   -2.9796    0.2876 C   0  0  0  0  0  0  0  0  0  0  0  0
   -9.7325   -2.8606    0.2665 C   0  0  0  0  0  0  0  0  0  0  0  0
  -10.1992   -2.5367   -1.1542 C   0  0  0  0  0  0  0  0  0  0  0  0
   -9.5781   -1.2134   -1.6057 C   0  0  0  0  0  0  0  0  0  0  0  0
   -8.0529   -1.3323   -1.5846 C   0  0  0  0  0  0  0  0  0  0  0  0
    0.4117    2.8061    0.6184 H   0  0  0  0  0  0  0  0  0  0  0  0
   -1.0751    2.6359   -0.3453 H   0  0  0  0  0  0  0  0  0  0  0  0
   -1.1463    2.5165    1.4292 H   0  0  0  0  0  0  0  0  0  0  0  0
    0.2828    0.5629   -0.4304 H   0  0  0  0  0  0  0  0  0  0  0  0
    0.2116    0.4435    1.3442 H   0  0  0  0  0  0  0  0  0  0  0  0
   -4.1035   -1.1747   -1.3102 H   0  0  0  0  0  0  0  0  0  0  0  0
   -6.0639   -2.4265    3.6728 H   0  0  0  0  0  0  0  0  0  0  0  0
   -3.5253   -1.1975    6.9056 H   0  0  0  0  0  0  0  0  0  0  0  0
   -1.9153   -0.2710    5.3444 H   0  0  0  0  0  0  0  0  0  0  0  0
   -6.1205   -2.7058    1.7646 H   0  0  0  0  0  0  0  0  0  0  0  0
   -4.5425   -3.0193   -1.0300 H   0  0  0  0  0  0  0  0  0  0  0  0
   -6.1141   -3.8242   -0.8057 H   0  0  0  0  0  0  0  0  0  0  0  0
   -5.9022   -2.6340   -2.1121 H   0  0  0  0  0  0  0  0  0  0  0  0
   -7.8979   -0.8594    0.5114 H   0  0  0  0  0  0  0  0  0  0  0  0
   -7.8956   -3.7763   -0.3878 H   0  0  0  0  0  0  0  0  0  0  0  0
   -7.8748   -3.2103    1.2997 H   0  0  0  0  0  0  0  0  0  0  0  0
  -10.1749   -3.8034    0.5882 H   0  0  0  0  0  0  0  0  0  0  0  0
  -10.0442   -2.0638    0.9418 H   0  0  0  0  0  0  0  0  0  0  0  0
   -9.8875   -3.3335   -1.8295 H   0  0  0  0  0  0  0  0  0  0  0  0
  -11.2858   -2.4520   -1.1692 H   0  0  0  0  0  0  0  0  0  0  0  0
   -9.9106   -0.9826   -2.6178 H   0  0  0  0  0  0  0  0  0  0  0  0
   -9.8898   -0.4166   -0.9304 H   0  0  0  0  0  0  0  0  0  0  0  0
   -7.6104   -0.3895   -1.9063 H   0  0  0  0  0  0  0  0  0  0  0  0
   -7.7412   -2.1291   -2.2600 H   0  0  0  0  0  0  0  0  0  0  0  0
  1  2  1  0  0  0  0
  1 28  1  0  0  0  0
  1 29  1  0  0  0  0
  1 30  1  0  0  0  0
  2  3  1  0  0  0  0
  2 31  1  0  0  0  0
  2 32  1  0  0  0  0
  3  7  1  0  0  0  0
  3  4  1  0  0  0  0
  4 15  2  0  0  0  0
  4  5  1  0  0  0  0
  5  6  1  0  0  0  0
  5  8  2  0  0  0  0
  6  7  2  0  0  0  0
  6 33  1  0  0  0  0
  8  9  1  0  0  0  0
  8 18  1  0  0  0  0
  9 14  2  0  0  0  0
  9 10  1  0  0  0  0
 10 11  2  0  0  0  0
 10 34  1  0  0  0  0
 11 12  1  0  0  0  0
 11 16  1  0  0  0  0
 12 13  2  0  0  0  0
 12 35  1  0  0  0  0
 13 14  1  0  0  0  0
 13 36  1  0  0  0  0
 14 15  1  0  0  0  0
 16 17  3  0  0  0  0
 18 19  1  0  0  0  0
 18 37  1  0  0  0  0
 19 20  1  0  0  0  0
 19 21  1  0  0  0  0
 19 22  1  0  0  0  0
 21 38  1  0  0  0  0
 21 39  1  0  0  0  0
 21 40  1  0  0  0  0
 22 27  1  0  0  0  0
 22 23  1  0  0  0  0
 22 41  1  0  0  0  0
 23 24  1  0  0  0  0
 23 42  1  0  0  0  0
 23 43  1  0  0  0  0
 24 25  1  0  0  0  0
 24 44  1  0  0  0  0
 24 45  1  0  0  0  0
 25 26  1  0  0  0  0
 25 46  1  0  0  0  0
 25 47  1  0  0  0  0
 26 27  1  0  0  0  0
 26 48  1  0  0  0  0
 26 49  1  0  0  0  0
 27 50  1  0  0  0  0
 27 51  1  0  0  0  0
M  END
$$$$
CHEMBL425344
  -OEChem-07121202283D

 38 40  0     0  0  0  0  0  0999 V2000
   -0.0187    1.5258    0.0104 C   0  0  0  0  0  0  0  0  0  0  0  0
    0.0021   -0.0041    0.0020 C   0  0  0  0  0  0  0  0  0  0  0  0
   -1.4333   -0.5336    0.0129 C   0  0  0  0  0  0  0  0  0  0  0  0
   -1.4134   -1.9985    0.0048 N   0  0  0  0  0  0  0  0  0  0  0  0
   -1.4073   -2.8097   -1.0964 C   0  0  0  0  0  0  0  0  0  0  0  0
   -1.3872   -4.1294   -0.6072 C   0  0  0  0  0  0  0  0  0  0  0  0
   -1.3775   -5.1838   -1.5411 C   0  0  0  0  0  0  0  0  0  0  0  0
   -1.3876   -4.8886   -2.8318 N   0  0  0  0  0  0  0  0  0  0  0  0
   -1.4066   -3.6263   -3.2501 C   0  0  0  0  0  0  0  0  0  0  0  0
   -1.4163   -2.6041   -2.4085 N   0  0  0  0  0  0  0  0  0  0  0  0
   -1.4172   -3.3548   -4.7062 C   0  0  0  0  0  0  0  0  0  0  0  0
   -1.4313   -2.0415   -5.1738 C   0  0  0  0  0  0  0  0  0  0  0  0
   -1.4412   -1.7943   -6.5308 C   0  0  0  0  0  0  0  0  0  0  0  0
   -1.4371   -2.8456   -7.4315 C   0  0  0  0  0  0  0  0  0  0  0  0
   -1.4236   -4.1510   -6.9798 C   0  0  0  0  0  0  0  0  0  0  0  0
   -1.4072   -4.4150   -5.6189 C   0  0  0  0  0  0  0  0  0  0  0  0
   -1.3878   -5.6975   -5.1737 O   0  0  0  0  0  0  0  0  0  0  0  0
   -1.3787   -6.7279   -6.1637 C   0  0  0  0  0  0  0  0  0  0  0  0
   -1.3570   -8.0949   -5.4769 C   0  0  0  0  0  0  0  0  0  0  0  0
   -1.3577   -6.4729   -1.1274 O   0  5  0  0  0  0  0  0  0  0  0  0
   -1.3821   -4.0698    0.7357 N   0  0  0  0  0  0  0  0  0  0  0  0
   -1.3908   -2.8428    1.1252 N   0  0  0  0  0  0  0  0  0  0  0  0
    1.0039    1.9031    0.0027 H   0  0  0  0  0  0  0  0  0  0  0  0
   -0.5459    1.8868   -0.8726 H   0  0  0  0  0  0  0  0  0  0  0  0
   -0.5289    1.8773    0.9072 H   0  0  0  0  0  0  0  0  0  0  0  0
    0.5123   -0.3556   -0.8948 H   0  0  0  0  0  0  0  0  0  0  0  0
    0.5293   -0.3651    0.8851 H   0  0  0  0  0  0  0  0  0  0  0  0
   -1.9435   -0.1821    0.9097 H   0  0  0  0  0  0  0  0  0  0  0  0
   -1.9605   -0.1726   -0.8702 H   0  0  0  0  0  0  0  0  0  0  0  0
   -1.4349   -1.2186   -4.4744 H   0  0  0  0  0  0  0  0  0  0  0  0
   -1.4525   -0.7765   -6.8921 H   0  0  0  0  0  0  0  0  0  0  0  0
   -1.4449   -2.6442   -8.4925 H   0  0  0  0  0  0  0  0  0  0  0  0
   -1.4208   -4.9667   -7.6876 H   0  0  0  0  0  0  0  0  0  0  0  0
   -2.2728   -6.6459   -6.7817 H   0  0  0  0  0  0  0  0  0  0  0  0
   -0.4930   -6.6219   -6.7902 H   0  0  0  0  0  0  0  0  0  0  0  0
   -2.2426   -8.2009   -4.8504 H   0  0  0  0  0  0  0  0  0  0  0  0
   -1.3500   -8.8809   -6.2321 H   0  0  0  0  0  0  0  0  0  0  0  0
   -0.4628   -8.1769   -4.8589 H   0  0  0  0  0  0  0  0  0  0  0  0
  1  2  1  0  0  0  0
  1 23  1  0  0  0  0
  1 24  1  0  0  0  0
  1 25  1  0  0  0  0
  2  3  1  0  0  0  0
  2 26  1  0  0  0  0
  2 27  1  0  0  0  0
  3  4  1  0  0  0  0
  3 28  1  0  0  0  0
  3 29  1  0  0  0  0
  4 22  1  0  0  0  0
  4  5  1  0  0  0  0
  5 10  2  0  0  0  0
  5  6  1  0  0  0  0
  6  7  2  0  0  0  0
  6 21  1  0  0  0  0
  7  8  1  0  0  0  0
  7 20  1  0  0  0  0
  8  9  2  0  0  0  0
  9 10  1  0  0  0  0
  9 11  1  0  0  0  0
 11 16  2  0  0  0  0
 11 12  1  0  0  0  0
 12 13  2  0  0  0  0
 12 30  1  0  0  0  0
 13 14  1  0  0  0  0
 13 31  1  0  0  0  0
 14 15  2  0  0  0  0
 14 32  1  0  0  0  0
 15 16  1  0  0  0  0
 15 33  1  0  0  0  0
 16 17  1  0  0  0  0
 17 18  1  0  0  0  0
 18 19  1  0  0  0  0
 18 34  1  0  0  0  0
 18 35  1  0  0  0  0
 19 36  1  0  0  0  0
 19 37  1  0  0  0  0
 19 38  1  0  0  0  0
 21 22  2  0  0  0  0
M  CHG  1  20  -1
M  END
$$$$
CHEMBL182829
  -OEChem-07121202283D

 42 45  0     0  0  0  0  0  0999 V2000
   -0.0187    1.5258    0.0104 C   0  0  0  0  0  0  0  0  0  0  0  0
    0.0021   -0.0041    0.0020 C   0  0  0  0  0  0  0  0  0  0  0  0
   -1.3386   -0.4987    0.0122 O   0  0  0  0  0  0  0  0  0  0  0  0
   -1.4982   -1.8472    0.0064 C   0  0  0  0  0  0  0  0  0  0  0  0
   -0.3893   -2.6790   -0.0029 C   0  0  0  0  0  0  0  0  0  0  0  0
   -0.5532   -4.0507   -0.0092 C   0  0  0  0  0  0  0  0  0  0  0  0
   -1.8225   -4.6029   -0.0063 C   0  0  0  0  0  0  0  0  0  0  0  0
   -2.9352   -3.7873    0.0030 C   0  0  0  0  0  0  0  0  0  0  0  0
   -2.7819   -2.4021    0.0157 C   0  0  0  0  0  0  0  0  0  0  0  0
   -3.9737   -1.5212    0.0324 C   0  0  0  0  0  0  0  0  0  0  0  0
   -5.1926   -2.0757    0.0465 N   0  0  0  0  0  0  0  0  0  0  0  0
   -6.2865   -1.3412    0.0621 C   0  0  0  0  0  0  0  0  0  0  0  0
   -6.1747    0.0692    0.0639 C   0  0  0  0  0  0  0  0  0  0  0  0
   -7.0364    1.0680    0.0772 N   0  0  0  0  0  0  0  0  0  0  0  0
   -6.3927    2.1839    0.0715 N   0  0  0  0  0  0  0  0  0  0  0  0
   -5.0997    1.9591    0.0546 C   0  0  0  0  0  0  0  0  0  0  0  0
   -4.9175    0.6277    0.0493 N   0  0  0  0  0  0  0  0  0  0  0  0
   -3.8043   -0.2166    0.0382 N   0  0  0  0  0  0  0  0  0  0  0  0
   -4.0150    3.0053    0.0437 C   0  0  0  0  0  0  0  0  0  0  0  0
   -4.1644    3.9342    1.2662 C   0  0  0  0  0  0  0  0  0  0  0  0
   -3.7762    5.3342    0.7293 C   0  0  0  0  0  0  0  0  0  0  0  0
   -4.3824    5.3338   -0.6961 C   0  0  0  0  0  0  0  0  0  0  0  0
   -4.1536    3.8952   -1.2040 C   0  0  0  0  0  0  0  0  0  0  0  0
   -7.5049   -1.9302    0.0758 O   0  5  0  0  0  0  0  0  0  0  0  0
    1.0039    1.9031    0.0027 H   0  0  0  0  0  0  0  0  0  0  0  0
   -0.5459    1.8868   -0.8726 H   0  0  0  0  0  0  0  0  0  0  0  0
   -0.5289    1.8773    0.9072 H   0  0  0  0  0  0  0  0  0  0  0  0
    0.5123   -0.3556   -0.8948 H   0  0  0  0  0  0  0  0  0  0  0  0
    0.5293   -0.3651    0.8851 H   0  0  0  0  0  0  0  0  0  0  0  0
    0.6037   -2.2543   -0.0056 H   0  0  0  0  0  0  0  0  0  0  0  0
    0.3133   -4.6954   -0.0168 H   0  0  0  0  0  0  0  0  0  0  0  0
   -1.9423   -5.6762   -0.0116 H   0  0  0  0  0  0  0  0  0  0  0  0
   -3.9239   -4.2218    0.0045 H   0  0  0  0  0  0  0  0  0  0  0  0
   -3.0355    2.5274    0.0544 H   0  0  0  0  0  0  0  0  0  0  0  0
   -5.1949    3.9342    1.6217 H   0  0  0  0  0  0  0  0  0  0  0  0
   -3.4853    3.6292    2.0623 H   0  0  0  0  0  0  0  0  0  0  0  0
   -4.2234    6.1194    1.3390 H   0  0  0  0  0  0  0  0  0  0  0  0
   -2.6927    5.4454    0.6882 H   0  0  0  0  0  0  0  0  0  0  0  0
   -5.4480    5.5598   -0.6575 H   0  0  0  0  0  0  0  0  0  0  0  0
   -3.8623    6.0501   -1.3320 H   0  0  0  0  0  0  0  0  0  0  0  0
   -3.2410    3.8498   -1.7983 H   0  0  0  0  0  0  0  0  0  0  0  0
   -5.0054    3.5704   -1.8016 H   0  0  0  0  0  0  0  0  0  0  0  0
  1  2  1  0  0  0  0
  1 25  1  0  0  0  0
  1 26  1  0  0  0  0
  1 27  1  0  0  0  0
  2  3  1  0  0  0  0
  2 28  1  0  0  0  0
  2 29  1  0  0  0  0
  3  4  1  0  0  0  0
  4  9  2  0  0  0  0
  4  5  1  0  0  0  0
  5  6  2  0  0  0  0
  5 30  1  0  0  0  0
  6  7  1  0  0  0  0
  6 31  1  0  0  0  0
  7  8  2  0  0  0  0
  7 32  1  0  0  0  0
  8  9  1  0  0  0  0
  8 33  1  0  0  0  0
  9 10  1  0  0  0  0
 10 18  2  0  0  0  0
 10 11  1  0  0  0  0
 11 12  2  0  0  0  0
 12 13  1  0  0  0  0
 12 24  1  0  0  0  0
 13 17  1  0  0  0  0
 13 14  2  0  0  0  0
 14 15  1  0  0  0  0
 15 16  2  0  0  0  0
 16 17  1  0  0  0  0
 16 19  1  0  0  0  0
 17 18  1  0  0  0  0
 19 23  1  0  0  0  0
 19 20  1  0  0  0  0
 19 34  1  0  0  0  0
 20 21  1  0  0  0  0
 20 35  1  0  0  0  0
 20 36  1  0  0  0  0
 21 22  1  0  0  0  0
 21 37  1  0  0  0  0
 21 38  1  0  0  0  0
 22 23  1  0  0  0  0
 22 39  1  0  0  0  0
 22 40  1  0  0  0  0
 23 41  1  0  0  0  0
 23 42  1  0  0  0  0
M  CHG  1  24  -1
M  END
$$$$
CHEMBL430802
  -OEChem-07121202283D

 60 65  0     1  0  0  0  0  0999 V2000
   -0.0178    1.4608    0.0101 C   0  0  0  0  0  0  0  0  0  0  0  0
    0.0021   -0.0041    0.0020 N   0  0  0  0  0  0  0  0  0  0  0  0
    0.0054   -0.6573   -1.1733 C   0  0  0  0  0  0  0  0  0  0  0  0
   -0.0091   -0.0326   -2.2187 O   0  0  0  0  0  0  0  0  0  0  0  0
    0.0253   -2.0678   -1.1930 C   0  0  0  0  0  0  0  0  0  0  0  0
    0.0428   -2.7648    0.0060 C   0  0  0  0  0  0  0  0  0  0  0  0
    0.0601   -4.0673   -0.2928 N   0  0  0  0  0  0  0  0  0  0  0  0
    0.0542   -4.2242   -1.5919 C   0  0  0  0  0  0  0  0  0  0  0  0
    0.0329   -3.0197   -2.1947 N   0  0  0  0  0  0  0  0  0  0  0  0
    0.0195   -2.7671   -3.6376 C   0  0  0  0  0  0  0  0  0  0  0  0
    1.4355   -2.6597   -4.1420 C   0  0  0  0  0  0  0  0  0  0  0  0
    2.0711   -1.4323   -4.1615 C   0  0  0  0  0  0  0  0  0  0  0  0
    3.3700   -1.3338   -4.6241 C   0  0  0  0  0  0  0  0  0  0  0  0
    4.0334   -2.4628   -5.0669 C   0  0  0  0  0  0  0  0  0  0  0  0
    3.3982   -3.6904   -5.0466 C   0  0  0  0  0  0  0  0  0  0  0  0
    2.1007   -3.7896   -4.5799 C   0  0  0  0  0  0  0  0  0  0  0  0
    0.0695   -5.5513   -2.3056 C   0  0  0  0  0  0  0  0  0  0  0  0
   -1.3677   -6.0217   -2.5386 C   0  0  0  0  0  0  0  0  0  0  0  0
   -2.0351   -6.3683   -1.1917 C   0  0  0  0  0  0  0  0  0  0  0  0
   -2.9161   -7.6017   -1.5106 C   0  0  0  0  0  0  0  0  0  0  0  0
   -2.0397   -8.3989   -2.5083 C   0  0  0  0  0  0  0  0  0  0  0  0
   -1.3706   -7.3128   -3.3757 C   0  0  0  0  0  0  0  0  0  0  0  0
    0.0390   -2.0621    1.2023 N   0  0  0  0  0  0  0  0  0  0  0  0
    0.0228   -0.6909    1.2067 C   0  0  0  0  0  0  0  0  0  0  0  0
    0.0232   -0.1825    2.4083 N   0  3  0  0  0  0  0  0  0  0  0  0
    0.0515   -1.2406    3.4216 C   0  0  1  0  0  0  0  0  0  0  0  0
   -0.8088   -1.1891    4.0888 H   0  0  0  0  0  0  0  0  0  0  0  0
    0.0538   -2.5462    2.5925 C   0  0  2  0  0  0  0  0  0  0  0  0
   -0.7960   -3.1915    2.8149 H   0  0  0  0  0  0  0  0  0  0  0  0
    1.4070   -3.2270    2.8788 C   0  0  0  0  0  0  0  0  0  0  0  0
    2.3282   -2.0707    3.3395 C   0  0  0  0  0  0  0  0  0  0  0  0
    1.3841   -1.1747    4.1950 C   0  0  0  0  0  0  0  0  0  0  0  0
    1.0048    1.8381    0.0023 H   0  0  0  0  0  0  0  0  0  0  0  0
   -0.5450    1.8219   -0.8730 H   0  0  0  0  0  0  0  0  0  0  0  0
   -0.5280    1.8123    0.9069 H   0  0  0  0  0  0  0  0  0  0  0  0
   -0.4859   -3.5884   -4.1456 H   0  0  0  0  0  0  0  0  0  0  0  0
   -0.5094   -1.8353   -3.8385 H   0  0  0  0  0  0  0  0  0  0  0  0
    1.5527   -0.5502   -3.8155 H   0  0  0  0  0  0  0  0  0  0  0  0
    3.8663   -0.3747   -4.6400 H   0  0  0  0  0  0  0  0  0  0  0  0
    5.0480   -2.3858   -5.4290 H   0  0  0  0  0  0  0  0  0  0  0  0
    3.9164   -4.5724   -5.3929 H   0  0  0  0  0  0  0  0  0  0  0  0
    1.6057   -4.7492   -4.5606 H   0  0  0  0  0  0  0  0  0  0  0  0
    0.5761   -5.4424   -3.2646 H   0  0  0  0  0  0  0  0  0  0  0  0
    0.5978   -6.2852   -1.6970 H   0  0  0  0  0  0  0  0  0  0  0  0
   -1.9365   -5.2445   -3.0490 H   0  0  0  0  0  0  0  0  0  0  0  0
   -1.2812   -6.6206   -0.4460 H   0  0  0  0  0  0  0  0  0  0  0  0
   -2.6515   -5.5382   -0.8466 H   0  0  0  0  0  0  0  0  0  0  0  0
   -3.1041   -8.1855   -0.6096 H   0  0  0  0  0  0  0  0  0  0  0  0
   -3.8529   -7.2971   -1.9772 H   0  0  0  0  0  0  0  0  0  0  0  0
   -1.2865   -8.9791   -1.9753 H   0  0  0  0  0  0  0  0  0  0  0  0
   -2.6594   -9.0507   -3.1241 H   0  0  0  0  0  0  0  0  0  0  0  0
   -1.9416   -7.1624   -4.2920 H   0  0  0  0  0  0  0  0  0  0  0  0
   -0.3481   -7.6043   -3.6161 H   0  0  0  0  0  0  0  0  0  0  0  0
    1.3006   -3.9681    3.6710 H   0  0  0  0  0  0  0  0  0  0  0  0
    1.7999   -3.6895    1.9734 H   0  0  0  0  0  0  0  0  0  0  0  0
    3.1475   -2.4495    3.9506 H   0  0  0  0  0  0  0  0  0  0  0  0
    2.7088   -1.5152    2.4825 H   0  0  0  0  0  0  0  0  0  0  0  0
    1.7428   -0.1468    4.2495 H   0  0  0  0  0  0  0  0  0  0  0  0
    1.2656   -1.5917    5.1951 H   0  0  0  0  0  0  0  0  0  0  0  0
    0.0072    0.7673    2.6043 H   0  0  0  0  0  0  0  0  0  0  0  0
  1  2  1  0  0  0  0
  1 33  1  0  0  0  0
  1 34  1  0  0  0  0
  1 35  1  0  0  0  0
  2 24  1  0  0  0  0
  2  3  1  0  0  0  0
  3  4  2  0  0  0  0
  3  5  1  0  0  0  0
  5  9  1  0  0  0  0
  5  6  2  0  0  0  0
  6  7  1  0  0  0  0
  6 23  1  0  0  0  0
  7  8  2  0  0  0  0
  8  9  1  0  0  0  0
  8 17  1  0  0  0  0
  9 10  1  0  0  0  0
 10 11  1  0  0  0  0
 10 36  1  0  0  0  0
 10 37  1  0  0  0  0
 11 16  2  0  0  0  0
 11 12  1  0  0  0  0
 12 13  2  0  0  0  0
 12 38  1  0  0  0  0
 13 14  1  0  0  0  0
 13 39  1  0  0  0  0
 14 15  2  0  0  0  0
 14 40  1  0  0  0  0
 15 16  1  0  0  0  0
 15 41  1  0  0  0  0
 16 42  1  0  0  0  0
 17 18  1  0  0  0  0
 17 43  1  0  0  0  0
 17 44  1  0  0  0  0
 18 22  1  0  0  0  0
 18 19  1  0  0  0  0
 18 45  1  0  0  0  0
 19 20  1  0  0  0  0
 19 46  1  0  0  0  0
 19 47  1  0  0  0  0
 20 21  1  0  0  0  0
 20 48  1  0  0  0  0
 20 49  1  0  0  0  0
 21 22  1  0  0  0  0
 21 50  1  0  0  0  0
 21 51  1  0  0  0  0
 22 52  1  0  0  0  0
 22 53  1  0  0  0  0
 23 28  1  0  0  0  0
 23 24  1  0  0  0  0
 24 25  2  0  0  0  0
 25 26  1  0  0  0  0
 25 60  1  0  0  0  0
 26 27  1  0  0  0  0
 26 32  1  0  0  0  0
 26 28  1  0  0  0  0
 28 29  1  0  0  0  0
 28 30  1  0  0  0  0
 30 31  1  0  0  0  0
 30 54  1  0  0  0  0
 30 55  1  0  0  0  0
 31 32  1  0  0  0  0
 31 56  1  0  0  0  0
 31 57  1  0  0  0  0
 32 58  1  0  0  0  0
 32 59  1  0  0  0  0
M  CHG  1  25   1
M  END
$$$$
CHEMBL430802
  -OEChem-07121202283D

 61 66  0     1  0  0  0  0  0999 V2000
   -0.0178    1.4608    0.0101 C   0  0  0  0  0  0  0  0  0  0  0  0
    0.0021   -0.0041    0.0020 N   0  0  0  0  0  0  0  0  0  0  0  0
    0.0054   -0.6573   -1.1733 C   0  0  0  0  0  0  0  0  0  0  0  0
   -0.0083   -0.0326   -2.2187 O   0  0  0  0  0  0  0  0  0  0  0  0
    0.0253   -2.0678   -1.1930 C   0  0  0  0  0  0  0  0  0  0  0  0
    0.0428   -2.7648    0.0060 C   0  0  0  0  0  0  0  0  0  0  0  0
    0.0601   -4.0673   -0.2928 N   0  3  0  0  0  0  0  0  0  0  0  0
    0.0542   -4.2242   -1.5919 C   0  0  0  0  0  0  0  0  0  0  0  0
    0.0329   -3.0197   -2.1947 N   0  0  0  0  0  0  0  0  0  0  0  0
    0.0195   -2.7671   -3.6376 C   0  0  0  0  0  0  0  0  0  0  0  0
    1.4355   -2.6597   -4.1420 C   0  0  0  0  0  0  0  0  0  0  0  0
    2.0711   -1.4323   -4.1615 C   0  0  0  0  0  0  0  0  0  0  0  0
    3.3700   -1.3338   -4.6241 C   0  0  0  0  0  0  0  0  0  0  0  0
    4.0334   -2.4628   -5.0669 C   0  0  0  0  0  0  0  0  0  0  0  0
    3.3982   -3.6904   -5.0466 C   0  0  0  0  0  0  0  0  0  0  0  0
    2.1007   -3.7896   -4.5799 C   0  0  0  0  0  0  0  0  0  0  0  0
    0.0695   -5.5513   -2.3056 C   0  0  0  0  0  0  0  0  0  0  0  0
   -1.3607   -6.0811   -2.4279 C   0  0  0  0  0  0  0  0  0  0  0  0
   -1.9079   -6.4517   -1.0340 C   0  0  0  0  0  0  0  0  0  0  0  0
   -2.7590   -7.7211   -1.2852 C   0  0  0  0  0  0  0  0  0  0  0  0
   -1.9296   -8.4840   -2.3478 C   0  0  0  0  0  0  0  0  0  0  0  0
   -1.3744   -7.3733   -3.2633 C   0  0  0  0  0  0  0  0  0  0  0  0
    0.0390   -2.0621    1.2023 N   0  0  0  0  0  0  0  0  0  0  0  0
    0.0228   -0.6909    1.2067 C   0  0  0  0  0  0  0  0  0  0  0  0
    0.0232   -0.1825    2.4083 N   0  3  0  0  0  0  0  0  0  0  0  0
    0.0515   -1.2406    3.4216 C   0  0  1  0  0  0  0  0  0  0  0  0
   -0.8088   -1.1891    4.0888 H   0  0  0  0  0  0  0  0  0  0  0  0
    0.0538   -2.5462    2.5925 C   0  0  2  0  0  0  0  0  0  0  0  0
   -0.7960   -3.1915    2.8149 H   0  0  0  0  0  0  0  0  0  0  0  0
    1.4070   -3.2270    2.8788 C   0  0  0  0  0  0  0  0  0  0  0  0
    2.3282   -2.0707    3.3395 C   0  0  0  0  0  0  0  0  0  0  0  0
    1.3841   -1.1747    4.1950 C   0  0  0  0  0  0  0  0  0  0  0  0
    1.0048    1.8381    0.0023 H   0  0  0  0  0  0  0  0  0  0  0  0
   -0.5450    1.8219   -0.8730 H   0  0  0  0  0  0  0  0  0  0  0  0
   -0.5280    1.8123    0.9069 H   0  0  0  0  0  0  0  0  0  0  0  0
   -0.4859   -3.5884   -4.1456 H   0  0  0  0  0  0  0  0  0  0  0  0
   -0.5094   -1.8353   -3.8385 H   0  0  0  0  0  0  0  0  0  0  0  0
    1.5527   -0.5502   -3.8155 H   0  0  0  0  0  0  0  0  0  0  0  0
    3.8663   -0.3747   -4.6400 H   0  0  0  0  0  0  0  0  0  0  0  0
    5.0480   -2.3858   -5.4290 H   0  0  0  0  0  0  0  0  0  0  0  0
    3.9164   -4.5724   -5.3929 H   0  0  0  0  0  0  0  0  0  0  0  0
    1.6057   -4.7492   -4.5606 H   0  0  0  0  0  0  0  0  0  0  0  0
    0.4960   -5.4239   -3.3006 H   0  0  0  0  0  0  0  0  0  0  0  0
    0.6728   -6.2612   -1.7398 H   0  0  0  0  0  0  0  0  0  0  0  0
   -1.9986   -5.3293   -2.8925 H   0  0  0  0  0  0  0  0  0  0  0  0
   -1.0892   -6.6708   -0.3486 H   0  0  0  0  0  0  0  0  0  0  0  0
   -2.5298   -5.6468   -0.6420 H   0  0  0  0  0  0  0  0  0  0  0  0
   -2.8530   -8.3100   -0.3728 H   0  0  0  0  0  0  0  0  0  0  0  0
   -3.7406   -7.4565   -1.6783 H   0  0  0  0  0  0  0  0  0  0  0  0
   -1.1144   -9.0313   -1.8746 H   0  0  0  0  0  0  0  0  0  0  0  0
   -2.5673   -9.1623   -2.9147 H   0  0  0  0  0  0  0  0  0  0  0  0
   -2.0198   -7.2489   -4.1328 H   0  0  0  0  0  0  0  0  0  0  0  0
   -0.3623   -7.6230   -3.5816 H   0  0  0  0  0  0  0  0  0  0  0  0
    1.3006   -3.9681    3.6710 H   0  0  0  0  0  0  0  0  0  0  0  0
    1.7999   -3.6895    1.9734 H   0  0  0  0  0  0  0  0  0  0  0  0
    3.1475   -2.4495    3.9506 H   0  0  0  0  0  0  0  0  0  0  0  0
    2.7088   -1.5152    2.4825 H   0  0  0  0  0  0  0  0  0  0  0  0
    1.7428   -0.1468    4.2495 H   0  0  0  0  0  0  0  0  0  0  0  0
    1.2656   -1.5917    5.1951 H   0  0  0  0  0  0  0  0  0  0  0  0
    0.0072    0.7673    2.6043 H   0  0  0  0  0  0  0  0  0  0  0  0
    0.0748   -4.7883    0.3560 H   0  0  0  0  0  0  0  0  0  0  0  0
  1  2  1  0  0  0  0
  1 33  1  0  0  0  0
  1 34  1  0  0  0  0
  1 35  1  0  0  0  0
  2 24  1  0  0  0  0
  2  3  1  0  0  0  0
  3  4  2  0  0  0  0
  3  5  1  0  0  0  0
  5  9  1  0  0  0  0
  5  6  2  0  0  0  0
  6  7  1  0  0  0  0
  6 23  1  0  0  0  0
  7  8  2  0  0  0  0
  7 61  1  0  0  0  0
  8  9  1  0  0  0  0
  8 17  1  0  0  0  0
  9 10  1  0  0  0  0
 10 11  1  0  0  0  0
 10 36  1  0  0  0  0
 10 37  1  0  0  0  0
 11 16  2  0  0  0  0
 11 12  1  0  0  0  0
 12 13  2  0  0  0  0
 12 38  1  0  0  0  0
 13 14  1  0  0  0  0
 13 39  1  0  0  0  0
 14 15  2  0  0  0  0
 14 40  1  0  0  0  0
 15 16  1  0  0  0  0
 15 41  1  0  0  0  0
 16 42  1  0  0  0  0
 17 18  1  0  0  0  0
 17 43  1  0  0  0  0
 17 44  1  0  0  0  0
 18 22  1  0  0  0  0
 18 19  1  0  0  0  0
 18 45  1  0  0  0  0
 19 20  1  0  0  0  0
 19 46  1  0  0  0  0
 19 47  1  0  0  0  0
 20 21  1  0  0  0  0
 20 48  1  0  0  0  0
 20 49  1  0  0  0  0
 21 22  1  0  0  0  0
 21 50  1  0  0  0  0
 21 51  1  0  0  0  0
 22 52  1  0  0  0  0
 22 53  1  0  0  0  0
 23 28  1  0  0  0  0
 23 24  1  0  0  0  0
 24 25  2  0  0  0  0
 25 26  1  0  0  0  0
 25 60  1  0  0  0  0
 26 27  1  0  0  0  0
 26 32  1  0  0  0  0
 26 28  1  0  0  0  0
 28 29  1  0  0  0  0
 28 30  1  0  0  0  0
 30 31  1  0  0  0  0
 30 54  1  0  0  0  0
 30 55  1  0  0  0  0
 31 32  1  0  0  0  0
 31 56  1  0  0  0  0
 31 57  1  0  0  0  0
 32 58  1  0  0  0  0
 32 59  1  0  0  0  0
M  CHG  2   7   1  25   1
M  END
$$$$
CHEMBL595104
  -OEChem-07121202283D

 60 63  0     0  0  0  0  0  0999 V2000
   -0.0178    1.4608    0.0101 C   0  0  0  0  0  0  0  0  0  0  0  0
    0.0021   -0.0041    0.0020 N   0  0  0  0  0  0  0  0  0  0  0  0
    0.0232   -0.7109    1.2113 C   0  0  0  0  0  0  0  0  0  0  0  0
   -1.1625   -1.0768    1.8092 C   0  0  0  0  0  0  0  0  0  0  0  0
   -1.1375   -1.7834    3.0172 C   0  0  0  0  0  0  0  0  0  0  0  0
    0.1028   -2.1170    3.6157 C   0  0  0  0  0  0  0  0  0  0  0  0
    1.2962   -1.7354    2.9909 C   0  0  0  0  0  0  0  0  0  0  0  0
    1.2521   -1.0454    1.8003 C   0  0  0  0  0  0  0  0  0  0  0  0
    2.4104   -0.6803    1.1919 O   0  0  0  0  0  0  0  0  0  0  0  0
    2.9547    0.5932    1.5440 C   0  0  0  0  0  0  0  0  0  0  0  0
    2.6228   -2.0832    3.6157 C   0  0  0  0  0  0  0  0  0  0  0  0
    3.0884   -3.4458    3.0985 C   0  0  0  0  0  0  0  0  0  0  0  0
    4.3463   -3.7757    3.6909 O   0  0  0  0  0  0  0  0  0  0  0  0
    0.0974   -2.7956    4.7741 N   0  0  0  0  0  0  0  0  0  0  0  0
   -1.0356   -3.1410    5.3374 C   0  0  0  0  0  0  0  0  0  0  0  0
   -2.2170   -2.8513    4.8154 N   0  0  0  0  0  0  0  0  0  0  0  0
   -2.3255   -2.1843    3.6741 C   0  0  0  0  0  0  0  0  0  0  0  0
   -3.5633   -1.8888    3.1416 N   0  0  0  0  0  0  0  0  0  0  0  0
   -4.7804   -2.3131    3.8378 C   0  0  0  0  0  0  0  0  0  0  0  0
   -5.9884   -1.8695    3.0534 C   0  0  0  0  0  0  0  0  0  0  0  0
   -6.5519   -0.6303    3.2962 C   0  0  0  0  0  0  0  0  0  0  0  0
   -7.6596   -0.2210    2.5791 C   0  0  0  0  0  0  0  0  0  0  0  0
   -8.2066   -1.0539    1.6142 C   0  0  0  0  0  0  0  0  0  0  0  0
   -7.6391   -2.2973    1.3716 C   0  0  0  0  0  0  0  0  0  0  0  0
   -6.5276   -2.6999    2.0886 C   0  0  0  0  0  0  0  0  0  0  0  0
   -8.3204   -3.3430    0.1650 Cl  0  0  0  0  0  0  0  0  0  0  0  0
   -9.2966   -0.6535    0.9078 O   0  0  0  0  0  0  0  0  0  0  0  0
   -9.8276    0.6381    1.2110 C   0  0  0  0  0  0  0  0  0  0  0  0
    0.0001   -0.6716   -1.1688 C   0  0  0  0  0  0  0  0  0  0  0  0
    0.0165   -1.8844   -1.1755 O   0  0  0  0  0  0  0  0  0  0  0  0
   -0.0226    0.0888   -2.4697 C   0  0  0  0  0  0  0  0  0  0  0  0
   -1.2934    0.0010   -3.3172 C   0  0  0  0  0  0  0  0  0  0  0  0
   -0.0238   -0.7263   -3.7645 C   0  0  0  0  0  0  0  0  0  0  0  0
    1.0048    1.8381    0.0023 H   0  0  0  0  0  0  0  0  0  0  0  0
   -0.5450    1.8219   -0.8730 H   0  0  0  0  0  0  0  0  0  0  0  0
   -0.5280    1.8123    0.9069 H   0  0  0  0  0  0  0  0  0  0  0  0
   -2.1053   -0.8198    1.3492 H   0  0  0  0  0  0  0  0  0  0  0  0
    3.8771    0.7603    0.9878 H   0  0  0  0  0  0  0  0  0  0  0  0
    2.2362    1.3756    1.2995 H   0  0  0  0  0  0  0  0  0  0  0  0
    3.1659    0.6150    2.6131 H   0  0  0  0  0  0  0  0  0  0  0  0
    3.3588   -1.3237    3.3521 H   0  0  0  0  0  0  0  0  0  0  0  0
    2.5145   -2.1236    4.6995 H   0  0  0  0  0  0  0  0  0  0  0  0
    2.3523   -4.2053    3.3620 H   0  0  0  0  0  0  0  0  0  0  0  0
    3.1967   -3.4054    2.0146 H   0  0  0  0  0  0  0  0  0  0  0  0
    4.7027   -4.6288    3.4078 H   0  0  0  0  0  0  0  0  0  0  0  0
   -1.0031   -3.6866    6.2689 H   0  0  0  0  0  0  0  0  0  0  0  0
   -3.6277   -1.4000    2.3062 H   0  0  0  0  0  0  0  0  0  0  0  0
   -4.7861   -3.3991    3.9304 H   0  0  0  0  0  0  0  0  0  0  0  0
   -4.8067   -1.8636    4.8304 H   0  0  0  0  0  0  0  0  0  0  0  0
   -6.1259    0.0181    4.0475 H   0  0  0  0  0  0  0  0  0  0  0  0
   -8.0994    0.7467    2.7699 H   0  0  0  0  0  0  0  0  0  0  0  0
   -6.0829   -3.6654    1.8978 H   0  0  0  0  0  0  0  0  0  0  0  0
  -10.6930    0.8330    0.5775 H   0  0  0  0  0  0  0  0  0  0  0  0
  -10.1291    0.6704    2.2579 H   0  0  0  0  0  0  0  0  0  0  0  0
   -9.0658    1.3961    1.0287 H   0  0  0  0  0  0  0  0  0  0  0  0
    0.5192    1.0346   -2.4709 H   0  0  0  0  0  0  0  0  0  0  0  0
   -2.1130   -0.6067   -2.9339 H   0  0  0  0  0  0  0  0  0  0  0  0
   -1.5879    0.8893   -3.8761 H   0  0  0  0  0  0  0  0  0  0  0  0
    0.5169   -0.3165   -4.6176 H   0  0  0  0  0  0  0  0  0  0  0  0
   -0.0081   -1.8125   -3.6754 H   0  0  0  0  0  0  0  0  0  0  0  0
  1  2  1  0  0  0  0
  1 34  1  0  0  0  0
  1 35  1  0  0  0  0
  1 36  1  0  0  0  0
  2  3  1  0  0  0  0
  2 29  1  0  0  0  0
  3  8  2  0  0  0  0
  3  4  1  0  0  0  0
  4  5  2  0  0  0  0
  4 37  1  0  0  0  0
  5 17  1  0  0  0  0
  5  6  1  0  0  0  0
  6  7  2  0  0  0  0
  6 14  1  0  0  0  0
  7  8  1  0  0  0  0
  7 11  1  0  0  0  0
  8  9  1  0  0  0  0
  9 10  1  0  0  0  0
 10 38  1  0  0  0  0
 10 39  1  0  0  0  0
 10 40  1  0  0  0  0
 11 12  1  0  0  0  0
 11 41  1  0  0  0  0
 11 42  1  0  0  0  0
 12 13  1  0  0  0  0
 12 43  1  0  0  0  0
 12 44  1  0  0  0  0
 13 45  1  0  0  0  0
 14 15  2  0  0  0  0
 15 16  1  0  0  0  0
 15 46  1  0  0  0  0
 16 17  2  0  0  0  0
 17 18  1  0  0  0  0
 18 19  1  0  0  0  0
 18 47  1  0  0  0  0
 19 20  1  0  0  0  0
 19 48  1  0  0  0  0
 19 49  1  0  0  0  0
 20 25  2  0  0  0  0
 20 21  1  0  0  0  0
 21 22  2  0  0  0  0
 21 50  1  0  0  0  0
 22 23  1  0  0  0  0
 22 51  1  0  0  0  0
 23 24  2  0  0  0  0
 23 27  1  0  0  0  0
 24 25  1  0  0  0  0
 24 26  1  0  0  0  0
 25 52  1  0  0  0  0
 27 28  1  0  0  0  0
 28 53  1  0  0  0  0
 28 54  1  0  0  0  0
 28 55  1  0  0  0  0
 29 30  2  0  0  0  0
 29 31  1  0  0  0  0
 31 33  1  0  0  0  0
 31 32  1  0  0  0  0
 31 56  1  0  0  0  0
 32 33  1  0  0  0  0
 32 57  1  0  0  0  0
 32 58  1  0  0  0  0
 33 59  1  0  0  0  0
 33 60  1  0  0  0  0
M  END
$$$$
CHEMBL595104
  -OEChem-07121202283D

 61 64  0     0  0  0  0  0  0999 V2000
   -0.0178    1.4608    0.0101 C   0  0  0  0  0  0  0  0  0  0  0  0
    0.0021   -0.0041    0.0020 N   0  0  0  0  0  0  0  0  0  0  0  0
    0.0232   -0.7109    1.2113 C   0  0  0  0  0  0  0  0  0  0  0  0
   -1.1625   -1.0768    1.8092 C   0  0  0  0  0  0  0  0  0  0  0  0
   -1.1375   -1.7834    3.0172 C   0  0  0  0  0  0  0  0  0  0  0  0
    0.1028   -2.1170    3.6157 C   0  0  0  0  0  0  0  0  0  0  0  0
    1.2962   -1.7354    2.9909 C   0  0  0  0  0  0  0  0  0  0  0  0
    1.2521   -1.0454    1.8003 C   0  0  0  0  0  0  0  0  0  0  0  0
    2.4104   -0.6803    1.1919 O   0  0  0  0  0  0  0  0  0  0  0  0
    2.9547    0.5932    1.5440 C   0  0  0  0  0  0  0  0  0  0  0  0
    2.6228   -2.0832    3.6157 C   0  0  0  0  0  0  0  0  0  0  0  0
    3.0884   -3.4458    3.0985 C   0  0  0  0  0  0  0  0  0  0  0  0
    4.3463   -3.7757    3.6909 O   0  0  0  0  0  0  0  0  0  0  0  0
    0.0974   -2.7956    4.7741 N   0  3  0  0  0  0  0  0  0  0  0  0
   -1.0356   -3.1414    5.3372 C   0  0  0  0  0  0  0  0  0  0  0  0
   -2.2170   -2.8517    4.8152 N   0  0  0  0  0  0  0  0  0  0  0  0
   -2.3255   -2.1843    3.6741 C   0  0  0  0  0  0  0  0  0  0  0  0
   -3.5633   -1.8888    3.1416 N   0  0  0  0  0  0  0  0  0  0  0  0
   -4.7804   -2.3131    3.8378 C   0  0  0  0  0  0  0  0  0  0  0  0
   -5.9884   -1.8695    3.0534 C   0  0  0  0  0  0  0  0  0  0  0  0
   -6.5519   -0.6303    3.2962 C   0  0  0  0  0  0  0  0  0  0  0  0
   -7.6596   -0.2210    2.5791 C   0  0  0  0  0  0  0  0  0  0  0  0
   -8.2066   -1.0539    1.6142 C   0  0  0  0  0  0  0  0  0  0  0  0
   -7.6391   -2.2973    1.3716 C   0  0  0  0  0  0  0  0  0  0  0  0
   -6.5276   -2.6999    2.0886 C   0  0  0  0  0  0  0  0  0  0  0  0
   -8.3204   -3.3430    0.1650 Cl  0  0  0  0  0  0  0  0  0  0  0  0
   -9.2966   -0.6535    0.9078 O   0  0  0  0  0  0  0  0  0  0  0  0
   -9.8276    0.6381    1.2110 C   0  0  0  0  0  0  0  0  0  0  0  0
    0.0001   -0.6716   -1.1688 C   0  0  0  0  0  0  0  0  0  0  0  0
    0.0165   -1.8844   -1.1755 O   0  0  0  0  0  0  0  0  0  0  0  0
   -0.0226    0.0888   -2.4697 C   0  0  0  0  0  0  0  0  0  0  0  0
   -1.2934    0.0010   -3.3172 C   0  0  0  0  0  0  0  0  0  0  0  0
   -0.0238   -0.7263   -3.7645 C   0  0  0  0  0  0  0  0  0  0  0  0
    1.0048    1.8381    0.0023 H   0  0  0  0  0  0  0  0  0  0  0  0
   -0.5450    1.8219   -0.8730 H   0  0  0  0  0  0  0  0  0  0  0  0
   -0.5280    1.8123    0.9069 H   0  0  0  0  0  0  0  0  0  0  0  0
   -2.1053   -0.8198    1.3492 H   0  0  0  0  0  0  0  0  0  0  0  0
    3.8771    0.7603    0.9878 H   0  0  0  0  0  0  0  0  0  0  0  0
    2.2362    1.3756    1.2995 H   0  0  0  0  0  0  0  0  0  0  0  0
    3.1659    0.6150    2.6131 H   0  0  0  0  0  0  0  0  0  0  0  0
    3.3588   -1.3237    3.3521 H   0  0  0  0  0  0  0  0  0  0  0  0
    2.5145   -2.1236    4.6995 H   0  0  0  0  0  0  0  0  0  0  0  0
    2.3523   -4.2053    3.3620 H   0  0  0  0  0  0  0  0  0  0  0  0
    3.1967   -3.4054    2.0146 H   0  0  0  0  0  0  0  0  0  0  0  0
    4.7027   -4.6288    3.4078 H   0  0  0  0  0  0  0  0  0  0  0  0
   -1.0031   -3.6872    6.2685 H   0  0  0  0  0  0  0  0  0  0  0  0
   -3.6277   -1.4000    2.3062 H   0  0  0  0  0  0  0  0  0  0  0  0
   -4.7861   -3.3991    3.9304 H   0  0  0  0  0  0  0  0  0  0  0  0
   -4.8067   -1.8636    4.8304 H   0  0  0  0  0  0  0  0  0  0  0  0
   -6.1259    0.0181    4.0475 H   0  0  0  0  0  0  0  0  0  0  0  0
   -8.0994    0.7467    2.7699 H   0  0  0  0  0  0  0  0  0  0  0  0
   -6.0829   -3.6654    1.8978 H   0  0  0  0  0  0  0  0  0  0  0  0
  -10.6930    0.8330    0.5775 H   0  0  0  0  0  0  0  0  0  0  0  0
  -10.1291    0.6704    2.2579 H   0  0  0  0  0  0  0  0  0  0  0  0
   -9.0658    1.3961    1.0287 H   0  0  0  0  0  0  0  0  0  0  0  0
    0.5192    1.0346   -2.4709 H   0  0  0  0  0  0  0  0  0  0  0  0
   -2.1130   -0.6067   -2.9339 H   0  0  0  0  0  0  0  0  0  0  0  0
   -1.5879    0.8893   -3.8761 H   0  0  0  0  0  0  0  0  0  0  0  0
    0.5169   -0.3165   -4.6176 H   0  0  0  0  0  0  0  0  0  0  0  0
   -0.0081   -1.8125   -3.6754 H   0  0  0  0  0  0  0  0  0  0  0  0
    0.9374   -3.0321    5.1974 H   0  0  0  0  0  0  0  0  0  0  0  0
  1  2  1  0  0  0  0
  1 34  1  0  0  0  0
  1 35  1  0  0  0  0
  1 36  1  0  0  0  0
  2  3  1  0  0  0  0
  2 29  1  0  0  0  0
  3  8  2  0  0  0  0
  3  4  1  0  0  0  0
  4  5  2  0  0  0  0
  4 37  1  0  0  0  0
  5 17  1  0  0  0  0
  5  6  1  0  0  0  0
  6  7  2  0  0  0  0
  6 14  1  0  0  0  0
  7  8  1  0  0  0  0
  7 11  1  0  0  0  0
  8  9  1  0  0  0  0
  9 10  1  0  0  0  0
 10 38  1  0  0  0  0
 10 39  1  0  0  0  0
 10 40  1  0  0  0  0
 11 12  1  0  0  0  0
 11 41  1  0  0  0  0
 11 42  1  0  0  0  0
 12 13  1  0  0  0  0
 12 43  1  0  0  0  0
 12 44  1  0  0  0  0
 13 45  1  0  0  0  0
 14 15  2  0  0  0  0
 14 61  1  0  0  0  0
 15 16  1  0  0  0  0
 15 46  1  0  0  0  0
 16 17  2  0  0  0  0
 17 18  1  0  0  0  0
 18 19  1  0  0  0  0
 18 47  1  0  0  0  0
 19 20  1  0  0  0  0
 19 48  1  0  0  0  0
 19 49  1  0  0  0  0
 20 25  2  0  0  0  0
 20 21  1  0  0  0  0
 21 22  2  0  0  0  0
 21 50  1  0  0  0  0
 22 23  1  0  0  0  0
 22 51  1  0  0  0  0
 23 24  2  0  0  0  0
 23 27  1  0  0  0  0
 24 25  1  0  0  0  0
 24 26  1  0  0  0  0
 25 52  1  0  0  0  0
 27 28  1  0  0  0  0
 28 53  1  0  0  0  0
 28 54  1  0  0  0  0
 28 55  1  0  0  0  0
 29 30  2  0  0  0  0
 29 31  1  0  0  0  0
 31 33  1  0  0  0  0
 31 32  1  0  0  0  0
 31 56  1  0  0  0  0
 32 33  1  0  0  0  0
 32 57  1  0  0  0  0
 32 58  1  0  0  0  0
 33 59  1  0  0  0  0
 33 60  1  0  0  0  0
M  CHG  1  14   1
M  END
$$$$
CHEMBL344018
  -OEChem-07121202283D

 57 61  0     0  0  0  0  0  0999 V2000
   -0.0276    1.4857    0.0324 C   0  0  0  0  0  0  0  0  0  0  0  0
   -0.0044   -0.0440    0.0138 C   0  0  0  0  0  0  0  0  0  0  0  0
    0.6828   -0.5074   -1.1942 N   0  0  0  0  0  0  0  0  0  0  0  0
    0.0944   -0.7636   -2.4026 C   0  0  0  0  0  0  0  0  0  0  0  0
    1.1258   -1.1812   -3.2631 C   0  0  0  0  0  0  0  0  0  0  0  0
    2.3228   -1.1598   -2.5228 C   0  0  0  0  0  0  0  0  0  0  0  0
    2.0547   -0.7581   -1.3118 N   0  0  0  0  0  0  0  0  0  0  0  0
    0.7724   -1.5230   -4.6334 C   0  0  0  0  0  0  0  0  0  0  0  0
   -0.5899   -1.4125   -5.0107 C   0  0  0  0  0  0  0  0  0  0  0  0
   -1.5259   -0.9829   -4.0595 C   0  0  0  0  0  0  0  0  0  0  0  0
   -1.1635   -0.6861   -2.8370 N   0  0  0  0  0  0  0  0  0  0  0  0
   -0.9277   -1.7449   -6.3396 C   0  0  0  0  0  0  0  0  0  0  0  0
    0.0294   -2.1390   -7.1609 N   0  0  0  0  0  0  0  0  0  0  0  0
    1.2593   -2.2373   -6.8155 N   0  0  0  0  0  0  0  0  0  0  0  0
    1.6952   -1.9545   -5.6005 C   0  0  0  0  0  0  0  0  0  0  0  0
    3.0445   -2.0809   -5.2850 N   0  0  0  0  0  0  0  0  0  0  0  0
    3.9764   -2.6434   -6.2655 C   0  0  0  0  0  0  0  0  0  0  0  0
    5.3651   -2.6704   -5.6807 C   0  0  0  0  0  0  0  0  0  0  0  0
    6.2036   -1.5829   -5.8434 C   0  0  0  0  0  0  0  0  0  0  0  0
    7.4773   -1.6047   -5.3089 C   0  0  0  0  0  0  0  0  0  0  0  0
    7.9154   -2.7186   -4.6079 C   0  0  0  0  0  0  0  0  0  0  0  0
    7.0720   -3.8091   -4.4453 C   0  0  0  0  0  0  0  0  0  0  0  0
    5.7964   -3.7799   -4.9778 C   0  0  0  0  0  0  0  0  0  0  0  0
    7.6159   -5.2053   -3.5688 Cl  0  0  0  0  0  0  0  0  0  0  0  0
    9.1683   -2.7425   -4.0816 O   0  0  0  0  0  0  0  0  0  0  0  0
    9.9811   -1.5855   -4.2884 C   0  0  0  0  0  0  0  0  0  0  0  0
   -2.2425   -1.6598   -6.7764 N   0  0  0  0  0  0  0  0  0  0  0  0
   -2.5790   -2.0081   -8.1591 C   0  0  0  0  0  0  0  0  0  0  0  0
   -4.0600   -1.8320   -8.3753 C   0  0  0  0  0  0  0  0  0  0  0  0
   -4.9405   -2.8774   -8.1426 C   0  0  0  0  0  0  0  0  0  0  0  0
   -6.2921   -2.6788   -8.3518 C   0  0  0  0  0  0  0  0  0  0  0  0
   -6.7460   -1.5127   -8.7679 N   0  0  0  0  0  0  0  0  0  0  0  0
   -5.9381   -0.4966   -8.9993 C   0  0  0  0  0  0  0  0  0  0  0  0
   -4.5751   -0.6189   -8.8061 C   0  0  0  0  0  0  0  0  0  0  0  0
    0.9945    1.8646    0.0278 H   0  0  0  0  0  0  0  0  0  0  0  0
   -0.5548    1.8518   -0.8486 H   0  0  0  0  0  0  0  0  0  0  0  0
   -0.5388    1.8304    0.9312 H   0  0  0  0  0  0  0  0  0  0  0  0
    0.5228   -0.4101    0.8948 H   0  0  0  0  0  0  0  0  0  0  0  0
   -1.0264   -0.4229    0.0184 H   0  0  0  0  0  0  0  0  0  0  0  0
    3.3002   -1.4270   -2.8966 H   0  0  0  0  0  0  0  0  0  0  0  0
   -2.5652   -0.8964   -4.3401 H   0  0  0  0  0  0  0  0  0  0  0  0
    3.3681   -1.7965   -4.4159 H   0  0  0  0  0  0  0  0  0  0  0  0
    3.6690   -3.6581   -6.5184 H   0  0  0  0  0  0  0  0  0  0  0  0
    3.9728   -2.0278   -7.1650 H   0  0  0  0  0  0  0  0  0  0  0  0
    5.8625   -0.7157   -6.3892 H   0  0  0  0  0  0  0  0  0  0  0  0
    8.1318   -0.7552   -5.4371 H   0  0  0  0  0  0  0  0  0  0  0  0
    5.1380   -4.6262   -4.8484 H   0  0  0  0  0  0  0  0  0  0  0  0
   10.9531   -1.7356   -3.8186 H   0  0  0  0  0  0  0  0  0  0  0  0
   10.1157   -1.4225   -5.3577 H   0  0  0  0  0  0  0  0  0  0  0  0
    9.4944   -0.7159   -3.8467 H   0  0  0  0  0  0  0  0  0  0  0  0
   -2.9385   -1.3698   -6.1662 H   0  0  0  0  0  0  0  0  0  0  0  0
   -2.0323   -1.3569   -8.8411 H   0  0  0  0  0  0  0  0  0  0  0  0
   -2.3049   -3.0457   -8.3494 H   0  0  0  0  0  0  0  0  0  0  0  0
   -4.5747   -3.8350   -7.8024 H   0  0  0  0  0  0  0  0  0  0  0  0
   -6.9845   -3.4881   -8.1729 H   0  0  0  0  0  0  0  0  0  0  0  0
   -6.3467    0.4434   -9.3397 H   0  0  0  0  0  0  0  0  0  0  0  0
   -3.9190    0.2184   -8.9926 H   0  0  0  0  0  0  0  0  0  0  0  0
  1  2  1  0  0  0  0
  1 35  1  0  0  0  0
  1 36  1  0  0  0  0
  1 37  1  0  0  0  0
  2  3  1  0  0  0  0
  2 38  1  0  0  0  0
  2 39  1  0  0  0  0
  3  7  1  0  0  0  0
  3  4  1  0  0  0  0
  4 11  2  0  0  0  0
  4  5  1  0  0  0  0
  5  6  1  0  0  0  0
  5  8  2  0  0  0  0
  6  7  2  0  0  0  0
  6 40  1  0  0  0  0
  8 15  1  0  0  0  0
  8  9  1  0  0  0  0
  9 10  2  0  0  0  0
  9 12  1  0  0  0  0
 10 11  1  0  0  0  0
 10 41  1  0  0  0  0
 12 13  2  0  0  0  0
 12 27  1  0  0  0  0
 13 14  1  0  0  0  0
 14 15  2  0  0  0  0
 15 16  1  0  0  0  0
 16 17  1  0  0  0  0
 16 42  1  0  0  0  0
 17 18  1  0  0  0  0
 17 43  1  0  0  0  0
 17 44  1  0  0  0  0
 18 23  2  0  0  0  0
 18 19  1  0  0  0  0
 19 20  2  0  0  0  0
 19 45  1  0  0  0  0
 20 21  1  0  0  0  0
 20 46  1  0  0  0  0
 21 22  2  0  0  0  0
 21 25  1  0  0  0  0
 22 23  1  0  0  0  0
 22 24  1  0  0  0  0
 23 47  1  0  0  0  0
 25 26  1  0  0  0  0
 26 48  1  0  0  0  0
 26 49  1  0  0  0  0
 26 50  1  0  0  0  0
 27 28  1  0  0  0  0
 27 51  1  0  0  0  0
 28 29  1  0  0  0  0
 28 52  1  0  0  0  0
 28 53  1  0  0  0  0
 29 34  2  0  0  0  0
 29 30  1  0  0  0  0
 30 31  2  0  0  0  0
 30 54  1  0  0  0  0
 31 32  1  0  0  0  0
 31 55  1  0  0  0  0
 32 33  2  0  0  0  0
 33 34  1  0  0  0  0
 33 56  1  0  0  0  0
 34 57  1  0  0  0  0
M  END
$$$$
CHEMBL493552
  -OEChem-07121202283D

 66 69  0     0  0  0  0  0  0999 V2000
    6.8877   -7.0291  -11.9411 C   0  0  0  0  0  0  0  0  0  0  0  0
    6.1839   -7.6937  -10.7562 C   0  0  0  0  0  0  0  0  0  0  0  0
    5.6703   -6.6870   -9.8816 O   0  0  0  0  0  0  0  0  0  0  0  0
    5.0163   -7.1089   -8.7792 C   0  0  0  0  0  0  0  0  0  0  0  0
    4.8863   -8.3000   -8.5673 O   0  0  0  0  0  0  0  0  0  0  0  0
    4.4805   -6.1641   -7.8677 C   0  0  0  0  0  0  0  0  0  0  0  0
    3.7853   -6.3698   -6.6830 C   0  0  0  0  0  0  0  0  0  0  0  0
    3.4066   -5.2962   -6.0377 N   0  0  0  0  0  0  0  0  0  0  0  0
    3.6746   -4.0855   -6.4946 C   0  0  0  0  0  0  0  0  0  0  0  0
    4.5192   -4.3795   -7.9203 S   0  0  0  0  0  0  0  0  0  0  0  0
    3.3442   -2.8680   -5.9330 N   0  0  0  0  0  0  0  0  0  0  0  0
    3.8055   -1.6924   -6.5055 C   0  0  0  0  0  0  0  0  0  0  0  0
    4.4683   -1.7497   -7.6506 N   0  0  0  0  0  0  0  0  0  0  0  0
    4.9260   -0.6421   -8.2295 C   0  0  0  0  0  0  0  0  0  0  0  0
    4.6997    0.5864   -7.6151 C   0  0  0  0  0  0  0  0  0  0  0  0
    3.9994    0.6064   -6.4128 C   0  0  0  0  0  0  0  0  0  0  0  0
    3.5672   -0.5416   -5.8957 N   0  3  0  0  0  0  0  0  0  0  0  0
    3.7504    1.8064   -5.7649 N   0  0  0  0  0  0  0  0  0  0  0  0
    3.1323    1.8313   -4.4302 C   0  0  0  0  0  0  0  0  0  0  0  0
    3.9830    2.7207   -3.5175 C   0  0  0  0  0  0  0  0  0  0  0  0
    4.1440    4.0428   -4.1356 N   0  3  0  0  0  0  0  0  0  0  0  0
    4.9026    3.9208   -5.3869 C   0  0  0  0  0  0  0  0  0  0  0  0
    4.1025    3.0907   -6.3899 C   0  0  0  0  0  0  0  0  0  0  0  0
    5.6193   -0.7109   -9.4279 N   0  0  0  0  0  0  0  0  0  0  0  0
    6.1188    0.5144  -10.0566 C   0  0  0  0  0  0  0  0  0  0  0  0
    6.8308    0.1670  -11.3385 C   0  0  0  0  0  0  0  0  0  0  0  0
    8.1853   -0.1086  -11.3239 C   0  0  0  0  0  0  0  0  0  0  0  0
    8.8385   -0.4273  -12.4998 C   0  0  0  0  0  0  0  0  0  0  0  0
    8.1370   -0.4708  -13.6902 C   0  0  0  0  0  0  0  0  0  0  0  0
    6.7824   -0.1960  -13.7046 C   0  0  0  0  0  0  0  0  0  0  0  0
    6.1283    0.1185  -12.5281 C   0  0  0  0  0  0  0  0  0  0  0  0
    8.9698   -0.8758  -15.1892 S   0  0  0  0  0  0  0  0  0  0  0  0
    8.2012   -0.3157  -16.2450 O   0  0  0  0  0  0  0  0  0  0  0  0
   10.3402   -0.5559  -14.9918 O   0  0  0  0  0  0  0  0  0  0  0  0
    8.8884   -2.5204  -15.3656 N   0  0  0  0  0  0  0  0  0  0  0  0
    3.4832   -7.7538   -6.1689 C   0  0  0  0  0  0  0  0  0  0  0  0
    6.1765   -6.4055  -12.4828 H   0  0  0  0  0  0  0  0  0  0  0  0
    7.7084   -6.4114  -11.5764 H   0  0  0  0  0  0  0  0  0  0  0  0
    7.2795   -7.7969  -12.6082 H   0  0  0  0  0  0  0  0  0  0  0  0
    5.3632   -8.3114  -11.1209 H   0  0  0  0  0  0  0  0  0  0  0  0
    6.8951   -8.3173  -10.2144 H   0  0  0  0  0  0  0  0  0  0  0  0
    2.7894   -2.8352   -5.1381 H   0  0  0  0  0  0  0  0  0  0  0  0
    5.0593    1.5020   -8.0608 H   0  0  0  0  0  0  0  0  0  0  0  0
    2.1235    2.2382   -4.5013 H   0  0  0  0  0  0  0  0  0  0  0  0
    3.0948    0.8202   -4.0250 H   0  0  0  0  0  0  0  0  0  0  0  0
    3.4888    2.8286   -2.5519 H   0  0  0  0  0  0  0  0  0  0  0  0
    4.9625    2.2641   -3.3755 H   0  0  0  0  0  0  0  0  0  0  0  0
    3.2348    4.4340   -4.3317 H   0  0  0  0  0  0  0  0  0  0  0  0
    5.0860    4.9131   -5.7990 H   0  0  0  0  0  0  0  0  0  0  0  0
    5.8543    3.4279   -5.1884 H   0  0  0  0  0  0  0  0  0  0  0  0
    4.7062    2.9117   -7.2797 H   0  0  0  0  0  0  0  0  0  0  0  0
    3.1935    3.6269   -6.6623 H   0  0  0  0  0  0  0  0  0  0  0  0
    5.7736   -1.5704   -9.8502 H   0  0  0  0  0  0  0  0  0  0  0  0
    5.2821    1.1783  -10.2741 H   0  0  0  0  0  0  0  0  0  0  0  0
    6.8121    1.0135   -9.3796 H   0  0  0  0  0  0  0  0  0  0  0  0
    8.7333   -0.0747  -10.3939 H   0  0  0  0  0  0  0  0  0  0  0  0
    9.8969   -0.6420  -12.4886 H   0  0  0  0  0  0  0  0  0  0  0  0
    6.2344   -0.2296  -14.6347 H   0  0  0  0  0  0  0  0  0  0  0  0
    5.0692    0.3296  -12.5387 H   0  0  0  0  0  0  0  0  0  0  0  0
    8.8749   -2.9130  -16.2524 H   0  0  0  0  0  0  0  0  0  0  0  0
    8.8543   -3.0911  -14.5820 H   0  0  0  0  0  0  0  0  0  0  0  0
    4.2967   -8.0878   -5.5249 H   0  0  0  0  0  0  0  0  0  0  0  0
    2.5536   -7.7352   -5.6000 H   0  0  0  0  0  0  0  0  0  0  0  0
    3.3807   -8.4394   -7.0100 H   0  0  0  0  0  0  0  0  0  0  0  0
    3.0747   -0.5354   -5.0600 H   0  0  0  0  0  0  0  0  0  0  0  0
    4.6395    4.6512   -3.5013 H   0  0  0  0  0  0  0  0  0  0  0  0
  1  2  1  0  0  0  0
  1 37  1  0  0  0  0
  1 38  1  0  0  0  0
  1 39  1  0  0  0  0
  2  3  1  0  0  0  0
  2 40  1  0  0  0  0
  2 41  1  0  0  0  0
  3  4  1  0  0  0  0
  4  5  2  0  0  0  0
  4  6  1  0  0  0  0
  6 10  1  0  0  0  0
  6  7  2  0  0  0  0
  7  8  1  0  0  0  0
  7 36  1  0  0  0  0
  8  9  2  0  0  0  0
  9 10  1  0  0  0  0
  9 11  1  0  0  0  0
 11 12  1  0  0  0  0
 11 42  1  0  0  0  0
 12 17  2  0  0  0  0
 12 13  1  0  0  0  0
 13 14  2  0  0  0  0
 14 15  1  0  0  0  0
 14 24  1  0  0  0  0
 15 16  2  0  0  0  0
 15 43  1  0  0  0  0
 16 17  1  0  0  0  0
 16 18  1  0  0  0  0
 17 65  1  0  0  0  0
 18 23  1  0  0  0  0
 18 19  1  0  0  0  0
 19 20  1  0  0  0  0
 19 44  1  0  0  0  0
 19 45  1  0  0  0  0
 20 21  1  0  0  0  0
 20 46  1  0  0  0  0
 20 47  1  0  0  0  0
 21 22  1  0  0  0  0
 21 48  1  0  0  0  0
 21 66  1  0  0  0  0
 22 23  1  0  0  0  0
 22 49  1  0  0  0  0
 22 50  1  0  0  0  0
 23 51  1  0  0  0  0
 23 52  1  0  0  0  0
 24 25  1  0  0  0  0
 24 53  1  0  0  0  0
 25 26  1  0  0  0  0
 25 54  1  0  0  0  0
 25 55  1  0  0  0  0
 26 31  2  0  0  0  0
 26 27  1  0  0  0  0
 27 28  2  0  0  0  0
 27 56  1  0  0  0  0
 28 29  1  0  0  0  0
 28 57  1  0  0  0  0
 29 30  2  0  0  0  0
 29 32  1  0  0  0  0
 30 31  1  0  0  0  0
 30 58  1  0  0  0  0
 31 59  1  0  0  0  0
 32 33  2  0  0  0  0
 32 34  2  0  0  0  0
 32 35  1  0  0  0  0
 35 60  1  0  0  0  0
 35 61  1  0  0  0  0
 36 62  1  0  0  0  0
 36 63  1  0  0  0  0
 36 64  1  0  0  0  0
M  CHG  2  17   1  21   1
M  END
$$$$
CHEMBL522338
  -OEChem-07121202283D

 56 58  0     0  0  0  0  0  0999 V2000
    6.8683   -7.0237  -11.9588 C   0  0  0  0  0  0  0  0  0  0  0  0
    6.1870   -7.6900  -10.7618 C   0  0  0  0  0  0  0  0  0  0  0  0
    5.6778   -6.6846   -9.8832 O   0  0  0  0  0  0  0  0  0  0  0  0
    5.0431   -7.1080   -8.7702 C   0  0  0  0  0  0  0  0  0  0  0  0
    4.9258   -8.2995   -8.5527 O   0  0  0  0  0  0  0  0  0  0  0  0
    4.5128   -6.1646   -7.8541 C   0  0  0  0  0  0  0  0  0  0  0  0
    3.8363   -6.3720   -6.6589 C   0  0  0  0  0  0  0  0  0  0  0  0
    3.4581   -5.2993   -6.0117 N   0  0  0  0  0  0  0  0  0  0  0  0
    3.7097   -4.0881   -6.4762 C   0  0  0  0  0  0  0  0  0  0  0  0
    4.5362   -4.3799   -7.9129 S   0  0  0  0  0  0  0  0  0  0  0  0
    3.3775   -2.8715   -5.9139 N   0  0  0  0  0  0  0  0  0  0  0  0
    3.8218   -1.6941   -6.4962 C   0  0  0  0  0  0  0  0  0  0  0  0
    3.5879   -0.5436   -5.8836 N   0  3  0  0  0  0  0  0  0  0  0  0
    3.9993    0.6064   -6.4125 C   0  0  0  0  0  0  0  0  0  0  0  0
    4.6829    0.5880   -7.6250 C   0  0  0  0  0  0  0  0  0  0  0  0
    4.9098   -0.6402   -8.2387 C   0  0  0  0  0  0  0  0  0  0  0  0
    4.4734   -1.7502   -7.6474 N   0  0  0  0  0  0  0  0  0  0  0  0
    5.5863   -0.7073   -9.4468 N   0  0  0  0  0  0  0  0  0  0  0  0
    6.0676    0.5199  -10.0860 C   0  0  0  0  0  0  0  0  0  0  0  0
    6.7636    0.1741  -11.3771 C   0  0  0  0  0  0  0  0  0  0  0  0
    8.1202   -0.0916  -11.3813 C   0  0  0  0  0  0  0  0  0  0  0  0
    8.7588   -0.4088  -12.5656 C   0  0  0  0  0  0  0  0  0  0  0  0
    8.0406   -0.4608  -13.7456 C   0  0  0  0  0  0  0  0  0  0  0  0
    6.6838   -0.1961  -13.7413 C   0  0  0  0  0  0  0  0  0  0  0  0
    6.0445    0.1169  -12.5563 C   0  0  0  0  0  0  0  0  0  0  0  0
    8.8547   -0.8640  -15.2553 S   0  0  0  0  0  0  0  0  0  0  0  0
    8.0668   -0.3126  -16.3015 O   0  0  0  0  0  0  0  0  0  0  0  0
   10.2253   -0.5334  -15.0785 O   0  0  0  0  0  0  0  0  0  0  0  0
    8.7830   -2.5097  -15.4259 N   0  0  0  0  0  0  0  0  0  0  0  0
    3.7499    1.8064   -5.7650 N   0  0  0  0  0  0  0  0  0  0  0  0
    4.2072    3.0665   -6.3559 C   0  0  0  0  0  0  0  0  0  0  0  0
    3.5528   -7.7567   -6.1361 C   0  0  0  0  0  0  0  0  0  0  0  0
    6.1444   -6.4076  -12.4923 H   0  0  0  0  0  0  0  0  0  0  0  0
    7.6891   -6.3982  -11.6079 H   0  0  0  0  0  0  0  0  0  0  0  0
    7.2567   -7.7905  -12.6290 H   0  0  0  0  0  0  0  0  0  0  0  0
    5.3662   -8.3155  -11.1127 H   0  0  0  0  0  0  0  0  0  0  0  0
    6.9109   -8.3060  -10.2283 H   0  0  0  0  0  0  0  0  0  0  0  0
    2.8334   -2.8405   -5.1115 H   0  0  0  0  0  0  0  0  0  0  0  0
    5.0286    1.5051   -8.0787 H   0  0  0  0  0  0  0  0  0  0  0  0
    5.7409   -1.5668   -9.8689 H   0  0  0  0  0  0  0  0  0  0  0  0
    5.2229    1.1769  -10.2933 H   0  0  0  0  0  0  0  0  0  0  0  0
    6.7668    1.0260   -9.4205 H   0  0  0  0  0  0  0  0  0  0  0  0
    8.6813   -0.0509  -10.4594 H   0  0  0  0  0  0  0  0  0  0  0  0
    9.8188   -0.6156  -12.5690 H   0  0  0  0  0  0  0  0  0  0  0  0
    6.1228   -0.2364  -14.6632 H   0  0  0  0  0  0  0  0  0  0  0  0
    4.9838    0.3201  -12.5523 H   0  0  0  0  0  0  0  0  0  0  0  0
    8.3445   -3.0488  -14.7492 H   0  0  0  0  0  0  0  0  0  0  0  0
    9.1796   -2.9345  -16.2026 H   0  0  0  0  0  0  0  0  0  0  0  0
    3.2727    1.8118   -4.9205 H   0  0  0  0  0  0  0  0  0  0  0  0
    5.2918    3.0453   -6.4627 H   0  0  0  0  0  0  0  0  0  0  0  0
    3.7481    3.1958   -7.3361 H   0  0  0  0  0  0  0  0  0  0  0  0
    3.9220    3.8959   -5.7088 H   0  0  0  0  0  0  0  0  0  0  0  0
    4.3781   -8.0820   -5.5028 H   0  0  0  0  0  0  0  0  0  0  0  0
    2.6314   -7.7437   -5.5540 H   0  0  0  0  0  0  0  0  0  0  0  0
    3.4439   -8.4459   -6.9735 H   0  0  0  0  0  0  0  0  0  0  0  0
    3.1106   -0.5388   -5.0391 H   0  0  0  0  0  0  0  0  0  0  0  0
  1  2  1  0  0  0  0
  1 33  1  0  0  0  0
  1 34  1  0  0  0  0
  1 35  1  0  0  0  0
  2  3  1  0  0  0  0
  2 36  1  0  0  0  0
  2 37  1  0  0  0  0
  3  4  1  0  0  0  0
  4  5  2  0  0  0  0
  4  6  1  0  0  0  0
  6 10  1  0  0  0  0
  6  7  2  0  0  0  0
  7  8  1  0  0  0  0
  7 32  1  0  0  0  0
  8  9  2  0  0  0  0
  9 10  1  0  0  0  0
  9 11  1  0  0  0  0
 11 12  1  0  0  0  0
 11 38  1  0  0  0  0
 12 17  2  0  0  0  0
 12 13  1  0  0  0  0
 13 14  2  0  0  0  0
 13 56  1  0  0  0  0
 14 15  1  0  0  0  0
 14 30  1  0  0  0  0
 15 16  2  0  0  0  0
 15 39  1  0  0  0  0
 16 17  1  0  0  0  0
 16 18  1  0  0  0  0
 18 19  1  0  0  0  0
 18 40  1  0  0  0  0
 19 20  1  0  0  0  0
 19 41  1  0  0  0  0
 19 42  1  0  0  0  0
 20 25  2  0  0  0  0
 20 21  1  0  0  0  0
 21 22  2  0  0  0  0
 21 43  1  0  0  0  0
 22 23  1  0  0  0  0
 22 44  1  0  0  0  0
 23 24  2  0  0  0  0
 23 26  1  0  0  0  0
 24 25  1  0  0  0  0
 24 45  1  0  0  0  0
 25 46  1  0  0  0  0
 26 27  2  0  0  0  0
 26 28  2  0  0  0  0
 26 29  1  0  0  0  0
 29 47  1  0  0  0  0
 29 48  1  0  0  0  0
 30 31  1  0  0  0  0
 30 49  1  0  0  0  0
 31 50  1  0  0  0  0
 31 51  1  0  0  0  0
 31 52  1  0  0  0  0
 32 53  1  0  0  0  0
 32 54  1  0  0  0  0
 32 55  1  0  0  0  0
M  CHG  1  13   1
M  END
$$$$
CHEMBL522338
  -OEChem-07121202283D

 56 58  0     0  0  0  0  0  0999 V2000
  -13.6089   -7.3675    0.0576 C   0  0  0  0  0  0  0  0  0  0  0  0
  -12.2153   -7.9990    0.0522 C   0  0  0  0  0  0  0  0  0  0  0  0
  -11.2253   -6.9685    0.0507 O   0  0  0  0  0  0  0  0  0  0  0  0
   -9.9338   -7.3597    0.0460 C   0  0  0  0  0  0  0  0  0  0  0  0
   -9.6570   -8.5445    0.0432 O   0  0  0  0  0  0  0  0  0  0  0  0
   -8.8994   -6.3900    0.0443 C   0  0  0  0  0  0  0  0  0  0  0  0
   -7.5212   -6.5628    0.0339 C   0  0  0  0  0  0  0  0  0  0  0  0
   -6.7989   -5.4717    0.0343 N   0  0  0  0  0  0  0  0  0  0  0  0
   -7.3572   -4.2740    0.0440 C   0  0  0  0  0  0  0  0  0  0  0  0
   -9.0068   -4.6074    0.0469 S   0  0  0  0  0  0  0  0  0  0  0  0
   -6.7349   -3.0414    0.0464 N   0  0  0  0  0  0  0  0  0  0  0  0
   -7.4906   -1.8829   -0.0513 C   0  0  0  0  0  0  0  0  0  0  0  0
   -8.8118   -1.9718   -0.0344 N   0  0  0  0  0  0  0  0  0  0  0  0
   -9.5695   -0.8814   -0.1261 C   0  0  0  0  0  0  0  0  0  0  0  0
   -8.9554    0.3625   -0.2407 C   0  0  0  0  0  0  0  0  0  0  0  0
   -7.5649    0.4157   -0.2549 C   0  0  0  0  0  0  0  0  0  0  0  0
   -6.8723   -0.7167   -0.1536 N   0  3  0  0  0  0  0  0  0  0  0  0
   -6.9096    1.6321   -0.3674 N   0  0  0  0  0  0  0  0  0  0  0  0
   -7.6814    2.8729   -0.4723 C   0  0  0  0  0  0  0  0  0  0  0  0
   -6.7384    4.0432   -0.5826 C   0  0  0  0  0  0  0  0  0  0  0  0
   -6.2934    4.6823    0.5595 C   0  0  0  0  0  0  0  0  0  0  0  0
   -5.4284    5.7558    0.4583 C   0  0  0  0  0  0  0  0  0  0  0  0
   -5.0081    6.1900   -0.7850 C   0  0  0  0  0  0  0  0  0  0  0  0
   -5.4524    5.5503   -1.9271 C   0  0  0  0  0  0  0  0  0  0  0  0
   -6.3140    4.4741   -1.8257 C   0  0  0  0  0  0  0  0  0  0  0  0
   -3.9065    7.5591   -0.9141 S   0  0  0  0  0  0  0  0  0  0  0  0
   -4.0947    8.1111   -2.2099 O   0  0  0  0  0  0  0  0  0  0  0  0
   -4.0701    8.3252    0.2715 O   0  0  0  0  0  0  0  0  0  0  0  0
   -2.3658    6.9530   -0.8770 N   0  0  0  0  0  0  0  0  0  0  0  0
  -10.9518   -0.9832   -0.1082 N   0  0  0  0  0  0  0  0  0  0  0  0
  -11.7766    0.2233   -0.2097 C   0  0  0  0  0  0  0  0  0  0  0  0
   -6.8922   -7.9322    0.0233 C   0  0  0  0  0  0  0  0  0  0  0  0
  -14.3640   -8.1536    0.0588 H   0  0  0  0  0  0  0  0  0  0  0  0
  -13.7249   -6.7510    0.9490 H   0  0  0  0  0  0  0  0  0  0  0  0
  -13.7305   -6.7481   -0.8310 H   0  0  0  0  0  0  0  0  0  0  0  0
  -12.0936   -8.6185    0.9408 H   0  0  0  0  0  0  0  0  0  0  0  0
  -12.0993   -8.6156   -0.8392 H   0  0  0  0  0  0  0  0  0  0  0  0
   -5.7690   -2.9859    0.1165 H   0  0  0  0  0  0  0  0  0  0  0  0
   -9.5440    1.2648   -0.3172 H   0  0  0  0  0  0  0  0  0  0  0  0
   -5.9401    1.6617   -0.3766 H   0  0  0  0  0  0  0  0  0  0  0  0
   -8.3156    2.8325   -1.3579 H   0  0  0  0  0  0  0  0  0  0  0  0
   -8.3035    2.9900    0.4150 H   0  0  0  0  0  0  0  0  0  0  0  0
   -6.6218    4.3431    1.5308 H   0  0  0  0  0  0  0  0  0  0  0  0
   -5.0813    6.2556    1.3505 H   0  0  0  0  0  0  0  0  0  0  0  0
   -5.1243    5.8897   -2.8984 H   0  0  0  0  0  0  0  0  0  0  0  0
   -6.6582    3.9720   -2.7178 H   0  0  0  0  0  0  0  0  0  0  0  0
   -1.6521    7.4135   -1.3455 H   0  0  0  0  0  0  0  0  0  0  0  0
   -2.1771    6.1375   -0.3869 H   0  0  0  0  0  0  0  0  0  0  0  0
  -11.3731   -1.8533   -0.0284 H   0  0  0  0  0  0  0  0  0  0  0  0
  -12.8304   -0.0532   -0.1784 H   0  0  0  0  0  0  0  0  0  0  0  0
  -11.5507    0.8890    0.6234 H   0  0  0  0  0  0  0  0  0  0  0  0
  -11.5622    0.7320   -1.1496 H   0  0  0  0  0  0  0  0  0  0  0  0
   -6.7477   -8.2577   -1.0069 H   0  0  0  0  0  0  0  0  0  0  0  0
   -5.9282   -7.8932    0.5306 H   0  0  0  0  0  0  0  0  0  0  0  0
   -7.5457   -8.6362    0.5385 H   0  0  0  0  0  0  0  0  0  0  0  0
   -5.9027   -0.6873   -0.1586 H   0  0  0  0  0  0  0  0  0  0  0  0
  1  2  1  0  0  0  0
  1 33  1  0  0  0  0
  1 34  1  0  0  0  0
  1 35  1  0  0  0  0
  2  3  1  0  0  0  0
  2 36  1  0  0  0  0
  2 37  1  0  0  0  0
  3  4  1  0  0  0  0
  4  5  2  0  0  0  0
  4  6  1  0  0  0  0
  6 10  1  0  0  0  0
  6  7  2  0  0  0  0
  7  8  1  0  0  0  0
  7 32  1  0  0  0  0
  8  9  2  0  0  0  0
  9 10  1  0  0  0  0
  9 11  1  0  0  0  0
 11 12  1  0  0  0  0
 11 38  1  0  0  0  0
 12 17  2  0  0  0  0
 12 13  1  0  0  0  0
 13 14  2  0  0  0  0
 14 15  1  0  0  0  0
 14 30  1  0  0  0  0
 15 16  2  0  0  0  0
 15 39  1  0  0  0  0
 16 17  1  0  0  0  0
 16 18  1  0  0  0  0
 17 56  1  0  0  0  0
 18 19  1  0  0  0  0
 18 40  1  0  0  0  0
 19 20  1  0  0  0  0
 19 41  1  0  0  0  0
 19 42  1  0  0  0  0
 20 25  2  0  0  0  0
 20 21  1  0  0  0  0
 21 22  2  0  0  0  0
 21 43  1  0  0  0  0
 22 23  1  0  0  0  0
 22 44  1  0  0  0  0
 23 24  2  0  0  0  0
 23 26  1  0  0  0  0
 24 25  1  0  0  0  0
 24 45  1  0  0  0  0
 25 46  1  0  0  0  0
 26 27  2  0  0  0  0
 26 28  2  0  0  0  0
 26 29  1  0  0  0  0
 29 47  1  0  0  0  0
 29 48  1  0  0  0  0
 30 31  1  0  0  0  0
 30 49  1  0  0  0  0
 31 50  1  0  0  0  0
 31 51  1  0  0  0  0
 31 52  1  0  0  0  0
 32 53  1  0  0  0  0
 32 54  1  0  0  0  0
 32 55  1  0  0  0  0
M  CHG  1  17   1
M  END
$$$$
CHEMBL161408
  -OEChem-07121202283D

 54 59  0     1  0  0  0  0  0999 V2000
   -0.0167    1.3781    0.0096 C   0  0  0  0  0  0  0  0  0  0  0  0
    1.1709    2.0855    0.0021 C   0  0  0  0  0  0  0  0  0  0  0  0
    2.3773    1.4107   -0.0130 C   0  0  0  0  0  0  0  0  0  0  0  0
    2.3960    0.0285   -0.0201 C   0  0  0  0  0  0  0  0  0  0  0  0
    1.2084   -0.6789   -0.0117 C   0  0  0  0  0  0  0  0  0  0  0  0
    0.0021   -0.0041    0.0020 C   0  0  0  0  0  0  0  0  0  0  0  0
    3.7112   -0.7071   -0.0376 C   0  0  0  0  0  0  0  0  0  0  0  0
    4.1518   -0.9524    1.3379 N   0  0  0  0  0  0  0  0  0  0  0  0
    5.3108   -1.6005    1.5688 C   0  0  0  0  0  0  0  0  0  0  0  0
    5.9906   -1.9815    0.6356 O   0  0  0  0  0  0  0  0  0  0  0  0
    5.7161   -1.8261    2.8342 N   0  0  0  0  0  0  0  0  0  0  0  0
    5.0162   -1.4409    4.0640 C   0  0  0  0  0  0  0  0  0  0  0  0
    5.8552   -1.9071    5.2279 C   0  0  0  0  0  0  0  0  0  0  0  0
    5.6303   -1.7857    6.6217 C   0  0  0  0  0  0  0  0  0  0  0  0
    6.6383   -2.3456    7.5367 C   0  0  0  0  0  0  0  0  0  0  0  0
    6.4924   -2.2685    8.9215 C   0  0  0  0  0  0  0  0  0  0  0  0
    7.4533   -2.8027    9.7339 C   0  0  0  0  0  0  0  0  0  0  0  0
    8.5717   -3.4203    9.1909 C   0  0  0  0  0  0  0  0  0  0  0  0
    8.7350   -3.5066    7.8259 C   0  0  0  0  0  0  0  0  0  0  0  0
    7.7682   -2.9697    6.9798 C   0  0  0  0  0  0  0  0  0  0  0  0
    7.8985   -3.0388    5.6136 N   0  0  0  0  0  0  0  0  0  0  0  0
    6.9648   -2.5203    4.7682 C   0  0  0  0  0  0  0  0  0  0  0  0
    6.9416   -2.5113    3.2560 C   0  0  2  0  0  0  0  0  0  0  0  0
    8.1462   -1.7716    2.7336 C   0  0  0  0  0  0  0  0  0  0  0  0
    8.1536   -0.3892    2.7181 C   0  0  0  0  0  0  0  0  0  0  0  0
    9.2564    0.2938    2.2403 C   0  0  0  0  0  0  0  0  0  0  0  0
   10.3576   -0.4064    1.7749 C   0  0  0  0  0  0  0  0  0  0  0  0
   10.3501   -1.7990    1.7904 C   0  0  0  0  0  0  0  0  0  0  0  0
    9.2437   -2.4768    2.2761 C   0  0  0  0  0  0  0  0  0  0  0  0
   11.5367   -2.2472    1.2861 O   0  0  0  0  0  0  0  0  0  0  0  0
   12.1046   -1.1254    0.5846 C   0  0  0  0  0  0  0  0  0  0  0  0
   11.5489    0.0178    1.2610 O   0  0  0  0  0  0  0  0  0  0  0  0
    4.6309   -1.2328    7.0508 O   0  0  0  0  0  0  0  0  0  0  0  0
   -0.9591    1.9053    0.0259 H   0  0  0  0  0  0  0  0  0  0  0  0
    1.1563    3.1654    0.0076 H   0  0  0  0  0  0  0  0  0  0  0  0
    3.3051    1.9634   -0.0196 H   0  0  0  0  0  0  0  0  0  0  0  0
    1.2231   -1.7588   -0.0176 H   0  0  0  0  0  0  0  0  0  0  0  0
   -0.9258   -0.5567    0.0082 H   0  0  0  0  0  0  0  0  0  0  0  0
    3.5884   -1.6586   -0.5549 H   0  0  0  0  0  0  0  0  0  0  0  0
    4.4573   -0.1052   -0.5563 H   0  0  0  0  0  0  0  0  0  0  0  0
    3.6095   -0.6484    2.0824 H   0  0  0  0  0  0  0  0  0  0  0  0
    4.9017   -0.3576    4.1009 H   0  0  0  0  0  0  0  0  0  0  0  0
    4.0374   -1.9194    4.0982 H   0  0  0  0  0  0  0  0  0  0  0  0
    5.6247   -1.7889    9.3499 H   0  0  0  0  0  0  0  0  0  0  0  0
    7.3418   -2.7434   10.8064 H   0  0  0  0  0  0  0  0  0  0  0  0
    9.3222   -3.8375    9.8460 H   0  0  0  0  0  0  0  0  0  0  0  0
    9.6088   -3.9892    7.4137 H   0  0  0  0  0  0  0  0  0  0  0  0
    6.9421   -3.5337    2.8784 H   0  0  0  0  0  0  0  0  0  0  0  0
    7.2958    0.1583    3.0799 H   0  0  0  0  0  0  0  0  0  0  0  0
    9.2595    1.3737    2.2295 H   0  0  0  0  0  0  0  0  0  0  0  0
    9.2369   -3.5566    2.2934 H   0  0  0  0  0  0  0  0  0  0  0  0
   13.1912   -1.1302    0.6703 H   0  0  0  0  0  0  0  0  0  0  0  0
   11.8020   -1.1353   -0.4625 H   0  0  0  0  0  0  0  0  0  0  0  0
    8.6817   -3.4713    5.2386 H   0  0  0  0  0  0  0  0  0  0  0  0
  1  6  2  0  0  0  0
  1  2  1  0  0  0  0
  1 34  1  0  0  0  0
  2  3  2  0  0  0  0
  2 35  1  0  0  0  0
  3  4  1  0  0  0  0
  3 36  1  0  0  0  0
  4  5  2  0  0  0  0
  4  7  1  0  0  0  0
  5  6  1  0  0  0  0
  5 37  1  0  0  0  0
  6 38  1  0  0  0  0
  7  8  1  0  0  0  0
  7 39  1  0  0  0  0
  7 40  1  0  0  0  0
  8  9  1  0  0  0  0
  8 41  1  0  0  0  0
  9 10  2  0  0  0  0
  9 11  1  0  0  0  0
 11 23  1  0  0  0  0
 11 12  1  0  0  0  0
 12 13  1  0  0  0  0
 12 42  1  0  0  0  0
 12 43  1  0  0  0  0
 13 22  2  0  0  0  0
 13 14  1  0  0  0  0
 14 15  1  0  0  0  0
 14 33  2  0  0  0  0
 15 20  2  0  0  0  0
 15 16  1  0  0  0  0
 16 17  2  0  0  0  0
 16 44  1  0  0  0  0
 17 18  1  0  0  0  0
 17 45  1  0  0  0  0
 18 19  2  0  0  0  0
 18 46  1  0  0  0  0
 19 20  1  0  0  0  0
 19 47  1  0  0  0  0
 20 21  1  0  0  0  0
 21 22  1  0  0  0  0
 21 54  1  0  0  0  0
 22 23  1  0  0  0  0
 23 24  1  0  0  0  0
 23 48  1  0  0  0  0
 24 29  2  0  0  0  0
 24 25  1  0  0  0  0
 25 26  2  0  0  0  0
 25 49  1  0  0  0  0
 26 27  1  0  0  0  0
 26 50  1  0  0  0  0
 27 32  1  0  0  0  0
 27 28  2  0  0  0  0
 28 29  1  0  0  0  0
 28 30  1  0  0  0  0
 29 51  1  0  0  0  0
 30 31  1  0  0  0  0
 31 32  1  0  0  0  0
 31 52  1  0  0  0  0
 31 53  1  0  0  0  0
M  END
$$$$
CHEMBL161408
  -OEChem-07121202283D

 54 59  0     1  0  0  0  0  0999 V2000
   -0.0167    1.3781    0.0096 C   0  0  0  0  0  0  0  0  0  0  0  0
    1.1709    2.0855    0.0021 C   0  0  0  0  0  0  0  0  0  0  0  0
    2.3773    1.4107   -0.0130 C   0  0  0  0  0  0  0  0  0  0  0  0
    2.3960    0.0285   -0.0201 C   0  0  0  0  0  0  0  0  0  0  0  0
    1.2084   -0.6789   -0.0117 C   0  0  0  0  0  0  0  0  0  0  0  0
    0.0021   -0.0041    0.0020 C   0  0  0  0  0  0  0  0  0  0  0  0
    3.7112   -0.7071   -0.0376 C   0  0  0  0  0  0  0  0  0  0  0  0
    4.1518   -0.9524    1.3379 N   0  0  0  0  0  0  0  0  0  0  0  0
    5.3108   -1.6005    1.5688 C   0  0  0  0  0  0  0  0  0  0  0  0
    5.9906   -1.9815    0.6356 O   0  0  0  0  0  0  0  0  0  0  0  0
    5.7161   -1.8261    2.8342 N   0  0  0  0  0  0  0  0  0  0  0  0
    5.0162   -1.4409    4.0640 C   0  0  0  0  0  0  0  0  0  0  0  0
    5.8552   -1.9071    5.2279 C   0  0  0  0  0  0  0  0  0  0  0  0
    5.6303   -1.7857    6.6217 C   0  0  0  0  0  0  0  0  0  0  0  0
    6.6383   -2.3456    7.5367 C   0  0  0  0  0  0  0  0  0  0  0  0
    6.4924   -2.2685    8.9215 C   0  0  0  0  0  0  0  0  0  0  0  0
    7.4533   -2.8027    9.7339 C   0  0  0  0  0  0  0  0  0  0  0  0
    8.5717   -3.4203    9.1909 C   0  0  0  0  0  0  0  0  0  0  0  0
    8.7350   -3.5066    7.8259 C   0  0  0  0  0  0  0  0  0  0  0  0
    7.7682   -2.9697    6.9798 C   0  0  0  0  0  0  0  0  0  0  0  0
    7.8985   -3.0388    5.6136 N   0  0  0  0  0  0  0  0  0  0  0  0
    6.9648   -2.5203    4.7682 C   0  0  0  0  0  0  0  0  0  0  0  0
    6.9416   -2.5113    3.2560 C   0  0  1  0  0  0  0  0  0  0  0  0
    6.9423   -3.9249    2.7339 C   0  0  0  0  0  0  0  0  0  0  0  0
    5.7662   -4.6512    2.7082 C   0  0  0  0  0  0  0  0  0  0  0  0
    5.7616   -5.9482    2.2297 C   0  0  0  0  0  0  0  0  0  0  0  0
    6.9370   -6.5236    1.7749 C   0  0  0  0  0  0  0  0  0  0  0  0
    8.1217   -5.7920    1.8008 C   0  0  0  0  0  0  0  0  0  0  0  0
    8.1177   -4.4907    2.2764 C   0  0  0  0  0  0  0  0  0  0  0  0
    9.1268   -6.5716    1.3058 O   0  0  0  0  0  0  0  0  0  0  0  0
    8.6277   -7.9212    1.3578 C   0  0  0  0  0  0  0  0  0  0  0  0
    7.1998   -7.7616    1.2635 O   0  0  0  0  0  0  0  0  0  0  0  0
    4.6309   -1.2328    7.0508 O   0  0  0  0  0  0  0  0  0  0  0  0
   -0.9591    1.9053    0.0259 H   0  0  0  0  0  0  0  0  0  0  0  0
    1.1563    3.1654    0.0076 H   0  0  0  0  0  0  0  0  0  0  0  0
    3.3051    1.9634   -0.0196 H   0  0  0  0  0  0  0  0  0  0  0  0
    1.2231   -1.7588   -0.0176 H   0  0  0  0  0  0  0  0  0  0  0  0
   -0.9258   -0.5567    0.0082 H   0  0  0  0  0  0  0  0  0  0  0  0
    3.5884   -1.6586   -0.5549 H   0  0  0  0  0  0  0  0  0  0  0  0
    4.4573   -0.1052   -0.5563 H   0  0  0  0  0  0  0  0  0  0  0  0
    3.6095   -0.6484    2.0824 H   0  0  0  0  0  0  0  0  0  0  0  0
    4.9017   -0.3576    4.1009 H   0  0  0  0  0  0  0  0  0  0  0  0
    4.0374   -1.9194    4.0982 H   0  0  0  0  0  0  0  0  0  0  0  0
    5.6247   -1.7889    9.3499 H   0  0  0  0  0  0  0  0  0  0  0  0
    7.3418   -2.7434   10.8064 H   0  0  0  0  0  0  0  0  0  0  0  0
    9.3222   -3.8375    9.8460 H   0  0  0  0  0  0  0  0  0  0  0  0
    9.6088   -3.9892    7.4137 H   0  0  0  0  0  0  0  0  0  0  0  0
    7.8129   -1.9763    2.8781 H   0  0  0  0  0  0  0  0  0  0  0  0
    4.8491   -4.2046    3.0630 H   0  0  0  0  0  0  0  0  0  0  0  0
    4.8414   -6.5132    2.2108 H   0  0  0  0  0  0  0  0  0  0  0  0
    9.0341   -3.9194    2.2935 H   0  0  0  0  0  0  0  0  0  0  0  0
    9.0046   -8.5017    0.5158 H   0  0  0  0  0  0  0  0  0  0  0  0
    8.8988   -8.3937    2.3020 H   0  0  0  0  0  0  0  0  0  0  0  0
    8.6817   -3.4713    5.2386 H   0  0  0  0  0  0  0  0  0  0  0  0
  1  6  2  0  0  0  0
  1  2  1  0  0  0  0
  1 34  1  0  0  0  0
  2  3  2  0  0  0  0
  2 35  1  0  0  0  0
  3  4  1  0  0  0  0
  3 36  1  0  0  0  0
  4  5  2  0  0  0  0
  4  7  1  0  0  0  0
  5  6  1  0  0  0  0
  5 37  1  0  0  0  0
  6 38  1  0  0  0  0
  7  8  1  0  0  0  0
  7 39  1  0  0  0  0
  7 40  1  0  0  0  0
  8  9  1  0  0  0  0
  8 41  1  0  0  0  0
  9 10  2  0  0  0  0
  9 11  1  0  0  0  0
 11 23  1  0  0  0  0
 11 12  1  0  0  0  0
 12 13  1  0  0  0  0
 12 42  1  0  0  0  0
 12 43  1  0  0  0  0
 13 22  2  0  0  0  0
 13 14  1  0  0  0  0
 14 15  1  0  0  0  0
 14 33  2  0  0  0  0
 15 20  2  0  0  0  0
 15 16  1  0  0  0  0
 16 17  2  0  0  0  0
 16 44  1  0  0  0  0
 17 18  1  0  0  0  0
 17 45  1  0  0  0  0
 18 19  2  0  0  0  0
 18 46  1  0  0  0  0
 19 20  1  0  0  0  0
 19 47  1  0  0  0  0
 20 21  1  0  0  0  0
 21 22  1  0  0  0  0
 21 54  1  0  0  0  0
 22 23  1  0  0  0  0
 23 24  1  0  0  0  0
 23 48  1  0  0  0  0
 24 29  2  0  0  0  0
 24 25  1  0  0  0  0
 25 26  2  0  0  0  0
 25 49  1  0  0  0  0
 26 27  1  0  0  0  0
 26 50  1  0  0  0  0
 27 32  1  0  0  0  0
 27 28  2  0  0  0  0
 28 29  1  0  0  0  0
 28 30  1  0  0  0  0
 29 51  1  0  0  0  0
 30 31  1  0  0  0  0
 31 32  1  0  0  0  0
 31 52  1  0  0  0  0
 31 53  1  0  0  0  0
M  END
$$$$
CHEMBL554480
  -OEChem-07121202283D

 57 61  0     0  0  0  0  0  0999 V2000
   -0.0187    1.5258    0.0104 C   0  0  0  0  0  0  0  0  0  0  0  0
    0.0021   -0.0041    0.0020 C   0  0  0  0  0  0  0  0  0  0  0  0
   -1.3386   -0.4987    0.0122 O   0  0  0  0  0  0  0  0  0  0  0  0
   -1.4981   -1.8467    0.0064 C   0  0  0  0  0  0  0  0  0  0  0  0
   -0.3897   -2.6788   -0.0029 C   0  0  0  0  0  0  0  0  0  0  0  0
   -0.5533   -4.0505   -0.0087 C   0  0  0  0  0  0  0  0  0  0  0  0
   -1.8227   -4.6045   -0.0054 C   0  0  0  0  0  0  0  0  0  0  0  0
   -2.9360   -3.7916    0.0034 C   0  0  0  0  0  0  0  0  0  0  0  0
   -2.7843   -2.4031    0.0157 C   0  0  0  0  0  0  0  0  0  0  0  0
   -3.9714   -1.5272    0.0323 C   0  0  0  0  0  0  0  0  0  0  0  0
   -5.2124   -2.1028    0.0467 N   0  0  0  0  0  0  0  0  0  0  0  0
   -5.2976   -3.0690    0.0458 H   0  0  0  0  0  0  0  0  0  0  0  0
   -6.3210   -1.3274    0.0625 C   0  0  0  0  0  0  0  0  0  0  0  0
   -7.4352   -1.8209    0.0759 O   0  0  0  0  0  0  0  0  0  0  0  0
   -6.1357    0.1254    0.0635 C   0  0  0  0  0  0  0  0  0  0  0  0
   -4.8254    0.6244    0.0481 C   0  0  0  0  0  0  0  0  0  0  0  0
   -3.7952   -0.2270    0.0380 N   0  0  0  0  0  0  0  0  0  0  0  0
   -4.9334    1.9921    0.0522 N   0  0  0  0  0  0  0  0  0  0  0  0
   -3.9987    2.9898    0.0420 C   0  0  0  0  0  0  0  0  0  0  0  0
   -4.3739    4.2849    0.0494 C   0  0  0  0  0  0  0  0  0  0  0  0
   -5.7370    4.6286    0.0676 C   0  0  0  0  0  0  0  0  0  0  0  0
   -6.6793    3.6496    0.0774 C   0  0  0  0  0  0  0  0  0  0  0  0
   -6.2746    2.2966    0.0696 C   0  0  0  0  0  0  0  0  0  0  0  0
   -6.9740    1.1721    0.0761 N   0  0  0  0  0  0  0  0  0  0  0  0
   -2.0153   -6.3559   -0.0129 S   0  0  0  0  0  0  0  0  0  0  0  0
   -3.3003   -6.6208   -0.5589 O   0  0  0  0  0  0  0  0  0  0  0  0
   -0.8245   -6.8931   -0.5720 O   0  0  0  0  0  0  0  0  0  0  0  0
   -2.0613   -6.8502    1.5669 N   0  0  0  0  0  0  0  0  0  0  0  0
   -0.8270   -7.2078    2.2823 C   0  0  0  0  0  0  0  0  0  0  0  0
   -0.7906   -6.4365    3.6059 C   0  0  0  0  0  0  0  0  0  0  0  0
   -2.0333   -6.6859    4.3485 N   0  0  0  0  0  0  0  0  0  0  0  0
   -3.2025   -6.1826    3.6152 C   0  0  0  0  0  0  0  0  0  0  0  0
   -3.3370   -6.9376    2.2938 C   0  0  0  0  0  0  0  0  0  0  0  0
   -1.9670   -6.1048    5.6961 C   0  0  0  0  0  0  0  0  0  0  0  0
    1.0039    1.9031    0.0027 H   0  0  0  0  0  0  0  0  0  0  0  0
   -0.5459    1.8868   -0.8726 H   0  0  0  0  0  0  0  0  0  0  0  0
   -0.5289    1.8773    0.9072 H   0  0  0  0  0  0  0  0  0  0  0  0
    0.5123   -0.3556   -0.8948 H   0  0  0  0  0  0  0  0  0  0  0  0
    0.5293   -0.3651    0.8851 H   0  0  0  0  0  0  0  0  0  0  0  0
    0.6034   -2.2541   -0.0059 H   0  0  0  0  0  0  0  0  0  0  0  0
    0.3136   -4.6946   -0.0163 H   0  0  0  0  0  0  0  0  0  0  0  0
   -3.9240   -4.2278    0.0057 H   0  0  0  0  0  0  0  0  0  0  0  0
   -2.9485    2.7379    0.0284 H   0  0  0  0  0  0  0  0  0  0  0  0
   -3.6238    5.0618    0.0415 H   0  0  0  0  0  0  0  0  0  0  0  0
   -6.0341    5.6669    0.0742 H   0  0  0  0  0  0  0  0  0  0  0  0
   -7.7288    3.9040    0.0911 H   0  0  0  0  0  0  0  0  0  0  0  0
   -0.8170   -8.2792    2.4824 H   0  0  0  0  0  0  0  0  0  0  0  0
    0.0384   -6.9374    1.6771 H   0  0  0  0  0  0  0  0  0  0  0  0
    0.0607   -6.7712    4.1987 H   0  0  0  0  0  0  0  0  0  0  0  0
   -0.6961   -5.3698    3.4029 H   0  0  0  0  0  0  0  0  0  0  0  0
   -4.1003   -6.3331    4.2147 H   0  0  0  0  0  0  0  0  0  0  0  0
   -3.0743   -5.1194    3.4120 H   0  0  0  0  0  0  0  0  0  0  0  0
   -4.1304   -6.4886    1.6962 H   0  0  0  0  0  0  0  0  0  0  0  0
   -3.5730   -7.9825    2.4950 H   0  0  0  0  0  0  0  0  0  0  0  0
   -1.8151   -5.0281    5.6204 H   0  0  0  0  0  0  0  0  0  0  0  0
   -2.8996   -6.3040    6.2240 H   0  0  0  0  0  0  0  0  0  0  0  0
   -1.1370   -6.5512    6.2438 H   0  0  0  0  0  0  0  0  0  0  0  0
  1  2  1  0  0  0  0
  1 35  1  0  0  0  0
  1 36  1  0  0  0  0
  1 37  1  0  0  0  0
  2  3  1  0  0  0  0
  2 38  1  0  0  0  0
  2 39  1  0  0  0  0
  3  4  1  0  0  0  0
  4  9  2  0  0  0  0
  4  5  1  0  0  0  0
  5  6  2  0  0  0  0
  5 40  1  0  0  0  0
  6  7  1  0  0  0  0
  6 41  1  0  0  0  0
  7  8  2  0  0  0  0
  7 25  1  0  0  0  0
  8  9  1  0  0  0  0
  8 42  1  0  0  0  0
  9 10  1  0  0  0  0
 10 17  2  0  0  0  0
 10 11  1  0  0  0  0
 11 12  1  0  0  0  0
 11 13  1  0  0  0  0
 13 14  2  0  0  0  0
 13 15  1  0  0  0  0
 15 24  1  0  0  0  0
 15 16  2  0  0  0  0
 16 17  1  0  0  0  0
 16 18  1  0  0  0  0
 18 23  1  0  0  0  0
 18 19  1  0  0  0  0
 19 20  2  0  0  0  0
 19 43  1  0  0  0  0
 20 21  1  0  0  0  0
 20 44  1  0  0  0  0
 21 22  2  0  0  0  0
 21 45  1  0  0  0  0
 22 23  1  0  0  0  0
 22 46  1  0  0  0  0
 23 24  2  0  0  0  0
 25 26  2  0  0  0  0
 25 27  2  0  0  0  0
 25 28  1  0  0  0  0
 28 33  1  0  0  0  0
 28 29  1  0  0  0  0
 29 30  1  0  0  0  0
 29 47  1  0  0  0  0
 29 48  1  0  0  0  0
 30 31  1  0  0  0  0
 30 49  1  0  0  0  0
 30 50  1  0  0  0  0
 31 32  1  0  0  0  0
 31 34  1  0  0  0  0
 32 33  1  0  0  0  0
 32 51  1  0  0  0  0
 32 52  1  0  0  0  0
 33 53  1  0  0  0  0
 33 54  1  0  0  0  0
 34 55  1  0  0  0  0
 34 56  1  0  0  0  0
 34 57  1  0  0  0  0
M  END
$$$$
CHEMBL554480
  -OEChem-07121202283D

 58 62  0     0  0  0  0  0  0999 V2000
   -0.0187    1.5258    0.0104 C   0  0  0  0  0  0  0  0  0  0  0  0
    0.0021   -0.0041    0.0020 C   0  0  0  0  0  0  0  0  0  0  0  0
    0.6709   -0.4649   -1.1737 O   0  0  0  0  0  0  0  0  0  0  0  0
    0.7766   -1.8084   -1.3359 C   0  0  0  0  0  0  0  0  0  0  0  0
    0.2437   -2.6681   -0.3882 C   0  0  0  0  0  0  0  0  0  0  0  0
    0.3520   -4.0352   -0.5544 C   0  0  0  0  0  0  0  0  0  0  0  0
    0.9920   -4.5572   -1.6662 C   0  0  0  0  0  0  0  0  0  0  0  0
    1.5280   -3.7167   -2.6182 C   0  0  0  0  0  0  0  0  0  0  0  0
    1.4200   -2.3324   -2.4653 C   0  0  0  0  0  0  0  0  0  0  0  0
    1.9852   -1.4271   -3.4839 C   0  0  0  0  0  0  0  0  0  0  0  0
    2.6019   -1.9714   -4.5770 N   0  0  0  0  0  0  0  0  0  0  0  0
    2.6603   -2.9352   -4.6698 H   0  0  0  0  0  0  0  0  0  0  0  0
    3.1301   -1.1685   -5.5293 C   0  0  0  0  0  0  0  0  0  0  0  0
    3.6830   -1.6338   -6.5106 O   0  0  0  0  0  0  0  0  0  0  0  0
    3.0140    0.2793   -5.3404 C   0  0  0  0  0  0  0  0  0  0  0  0
    2.3648    0.7453   -4.1882 C   0  0  0  0  0  0  0  0  0  0  0  0
    1.8719   -0.1318   -3.3082 N   0  0  0  0  0  0  0  0  0  0  0  0
    2.3939    2.1151   -4.2564 N   0  0  0  0  0  0  0  0  0  0  0  0
    1.9201    3.0891   -3.4220 C   0  0  0  0  0  0  0  0  0  0  0  0
    2.0811    4.3932   -3.7247 C   0  0  0  0  0  0  0  0  0  0  0  0
    2.7411    4.7710   -4.9072 C   0  0  0  0  0  0  0  0  0  0  0  0
    3.2187    3.8158   -5.7475 C   0  0  0  0  0  0  0  0  0  0  0  0
    3.0443    2.4532   -5.4202 C   0  0  0  0  0  0  0  0  0  0  0  0
    3.4057    1.3466   -6.0516 N   0  0  0  0  0  0  0  0  0  0  0  0
    1.1221   -6.3032   -1.8642 S   0  0  0  0  0  0  0  0  0  0  0  0
    2.2412   -6.5338   -2.7091 O   0  0  0  0  0  0  0  0  0  0  0  0
    1.0196   -6.8681   -0.5644 O   0  0  0  0  0  0  0  0  0  0  0  0
   -0.2154   -6.8017   -2.7038 N   0  0  0  0  0  0  0  0  0  0  0  0
   -1.4472   -7.1929   -2.0011 C   0  0  0  0  0  0  0  0  0  0  0  0
   -2.6249   -6.4410   -2.6299 C   0  0  0  0  0  0  0  0  0  0  0  0
   -2.6472   -6.6905   -4.0767 N   0  3  0  0  0  0  0  0  0  0  0  0
   -1.4420   -6.1289   -4.6997 C   0  0  0  0  0  0  0  0  0  0  0  0
   -0.2075   -6.8601   -4.1737 C   0  0  0  0  0  0  0  0  0  0  0  0
   -3.8379   -6.0602   -4.6622 C   0  0  0  0  0  0  0  0  0  0  0  0
    1.0039    1.9031    0.0027 H   0  0  0  0  0  0  0  0  0  0  0  0
   -0.5459    1.8868   -0.8726 H   0  0  0  0  0  0  0  0  0  0  0  0
   -0.5289    1.8773    0.9072 H   0  0  0  0  0  0  0  0  0  0  0  0
    0.5293   -0.3651    0.8851 H   0  0  0  0  0  0  0  0  0  0  0  0
   -1.0205   -0.3814    0.0098 H   0  0  0  0  0  0  0  0  0  0  0  0
   -0.2565   -2.2685    0.4816 H   0  0  0  0  0  0  0  0  0  0  0  0
   -0.0646   -4.7008    0.1871 H   0  0  0  0  0  0  0  0  0  0  0  0
    2.0266   -4.1279   -3.4835 H   0  0  0  0  0  0  0  0  0  0  0  0
    1.4110    2.8110   -2.5110 H   0  0  0  0  0  0  0  0  0  0  0  0
    1.7009    5.1511   -3.0558 H   0  0  0  0  0  0  0  0  0  0  0  0
    2.8677    5.8164   -5.1469 H   0  0  0  0  0  0  0  0  0  0  0  0
    3.7274    4.0965   -6.6579 H   0  0  0  0  0  0  0  0  0  0  0  0
   -1.6018   -8.2671   -2.1034 H   0  0  0  0  0  0  0  0  0  0  0  0
   -1.3663   -6.9304   -0.9463 H   0  0  0  0  0  0  0  0  0  0  0  0
   -3.5574   -6.7900   -2.1865 H   0  0  0  0  0  0  0  0  0  0  0  0
   -2.5130   -5.3723   -2.4471 H   0  0  0  0  0  0  0  0  0  0  0  0
   -1.5029   -6.2480   -5.7815 H   0  0  0  0  0  0  0  0  0  0  0  0
   -1.3659   -5.0697   -4.4543 H   0  0  0  0  0  0  0  0  0  0  0  0
    0.6926   -6.3776   -4.5546 H   0  0  0  0  0  0  0  0  0  0  0  0
   -0.2349   -7.9000   -4.4991 H   0  0  0  0  0  0  0  0  0  0  0  0
   -3.8080   -4.9862   -4.4785 H   0  0  0  0  0  0  0  0  0  0  0  0
   -3.8557   -6.2447   -5.7363 H   0  0  0  0  0  0  0  0  0  0  0  0
   -4.7337   -6.4820   -4.2062 H   0  0  0  0  0  0  0  0  0  0  0  0
   -2.6790   -7.6849   -4.2448 H   0  0  0  0  0  0  0  0  0  0  0  0
  1  2  1  0  0  0  0
  1 35  1  0  0  0  0
  1 36  1  0  0  0  0
  1 37  1  0  0  0  0
  2  3  1  0  0  0  0
  2 38  1  0  0  0  0
  2 39  1  0  0  0  0
  3  4  1  0  0  0  0
  4  9  2  0  0  0  0
  4  5  1  0  0  0  0
  5  6  2  0  0  0  0
  5 40  1  0  0  0  0
  6  7  1  0  0  0  0
  6 41  1  0  0  0  0
  7  8  2  0  0  0  0
  7 25  1  0  0  0  0
  8  9  1  0  0  0  0
  8 42  1  0  0  0  0
  9 10  1  0  0  0  0
 10 17  2  0  0  0  0
 10 11  1  0  0  0  0
 11 12  1  0  0  0  0
 11 13  1  0  0  0  0
 13 14  2  0  0  0  0
 13 15  1  0  0  0  0
 15 24  1  0  0  0  0
 15 16  2  0  0  0  0
 16 17  1  0  0  0  0
 16 18  1  0  0  0  0
 18 23  1  0  0  0  0
 18 19  1  0  0  0  0
 19 20  2  0  0  0  0
 19 43  1  0  0  0  0
 20 21  1  0  0  0  0
 20 44  1  0  0  0  0
 21 22  2  0  0  0  0
 21 45  1  0  0  0  0
 22 23  1  0  0  0  0
 22 46  1  0  0  0  0
 23 24  2  0  0  0  0
 25 26  2  0  0  0  0
 25 27  2  0  0  0  0
 25 28  1  0  0  0  0
 28 33  1  0  0  0  0
 28 29  1  0  0  0  0
 29 30  1  0  0  0  0
 29 47  1  0  0  0  0
 29 48  1  0  0  0  0
 30 31  1  0  0  0  0
 30 49  1  0  0  0  0
 30 50  1  0  0  0  0
 31 32  1  0  0  0  0
 31 34  1  0  0  0  0
 31 58  1  0  0  0  0
 32 33  1  0  0  0  0
 32 51  1  0  0  0  0
 32 52  1  0  0  0  0
 33 53  1  0  0  0  0
 33 54  1  0  0  0  0
 34 55  1  0  0  0  0
 34 56  1  0  0  0  0
 34 57  1  0  0  0  0
M  CHG  1  31   1
M  END
$$$$
CHEMBL569491
  -OEChem-07121202283D

 59 62  0     0  0  0  0  0  0999 V2000
   -0.0187    1.5258    0.0104 C   0  0  0  0  0  0  0  0  0  0  0  0
    0.0021   -0.0041    0.0020 C   0  0  0  0  0  0  0  0  0  0  0  0
   -1.4333   -0.5336    0.0129 C   0  0  0  0  0  0  0  0  0  0  0  0
   -1.4139   -1.9625    0.0050 O   0  0  0  0  0  0  0  0  0  0  0  0
   -2.7113   -2.5614    0.0142 C   0  0  0  0  0  0  0  0  0  0  0  0
   -2.5698   -4.0848    0.0047 C   0  0  0  0  0  0  0  0  0  0  0  0
   -1.9315   -4.5238    1.2481 N   0  0  0  0  0  0  0  0  0  0  0  0
   -0.5552   -4.6259    1.3321 C   0  0  0  0  0  0  0  0  0  0  0  0
    0.2383   -4.3122    0.2334 C   0  0  0  0  0  0  0  0  0  0  0  0
    1.6218   -4.4290    0.3629 C   0  0  0  0  0  0  0  0  0  0  0  0
    2.1594   -4.8539    1.5828 C   0  0  0  0  0  0  0  0  0  0  0  0
    1.3858   -5.1427    2.6017 N   0  0  0  0  0  0  0  0  0  0  0  0
    0.0556   -5.0467    2.5273 C   0  0  0  0  0  0  0  0  0  0  0  0
   -0.6954   -5.3552    3.6048 N   0  0  0  0  0  0  0  0  0  0  0  0
   -2.0011   -5.2721    3.5660 C   0  0  0  0  0  0  0  0  0  0  0  0
   -2.6788   -4.8295    2.3316 C   0  0  0  0  0  0  0  0  0  0  0  0
   -3.8922   -4.7448    2.2892 O   0  0  0  0  0  0  0  0  0  0  0  0
   -2.7459   -5.5940    4.6838 N   0  0  0  0  0  0  0  0  0  0  0  0
   -2.0743   -6.0280    5.9114 C   0  0  0  0  0  0  0  0  0  0  0  0
   -3.1047   -6.3162    6.9726 C   0  0  0  0  0  0  0  0  0  0  0  0
   -3.5529   -7.6109    7.1560 C   0  0  0  0  0  0  0  0  0  0  0  0
   -4.5009   -7.8653    8.1350 C   0  0  0  0  0  0  0  0  0  0  0  0
   -4.9648   -6.8032    8.8964 C   0  0  0  0  0  0  0  0  0  0  0  0
   -4.4702   -5.5355    8.6557 C   0  0  0  0  0  0  0  0  0  0  0  0
   -3.5644   -5.3313    7.7192 N   0  0  0  0  0  0  0  0  0  0  0  0
    2.5122   -4.1074   -0.7781 C   0  0  0  0  0  0  0  0  0  0  0  0
    3.9009   -4.2296   -0.6515 C   0  0  0  0  0  0  0  0  0  0  0  0
    4.6894   -3.9185   -1.7421 C   0  0  0  0  0  0  0  0  0  0  0  0
    4.0833   -3.4976   -2.9204 C   0  0  0  0  0  0  0  0  0  0  0  0
    2.7674   -3.3924   -3.0078 N   0  0  0  0  0  0  0  0  0  0  0  0
    1.9788   -3.6848   -1.9930 C   0  0  0  0  0  0  0  0  0  0  0  0
    4.8517   -3.1900   -3.9951 O   0  0  0  0  0  0  0  0  0  0  0  0
    4.1724   -2.7634   -5.1777 C   0  0  0  0  0  0  0  0  0  0  0  0
    1.0039    1.9031    0.0027 H   0  0  0  0  0  0  0  0  0  0  0  0
   -0.5459    1.8868   -0.8726 H   0  0  0  0  0  0  0  0  0  0  0  0
   -0.5289    1.8773    0.9072 H   0  0  0  0  0  0  0  0  0  0  0  0
    0.5123   -0.3556   -0.8948 H   0  0  0  0  0  0  0  0  0  0  0  0
    0.5293   -0.3651    0.8851 H   0  0  0  0  0  0  0  0  0  0  0  0
   -1.9435   -0.1821    0.9097 H   0  0  0  0  0  0  0  0  0  0  0  0
   -1.9605   -0.1726   -0.8702 H   0  0  0  0  0  0  0  0  0  0  0  0
   -3.2480   -2.2520    0.9110 H   0  0  0  0  0  0  0  0  0  0  0  0
   -3.2650   -2.2424   -0.8688 H   0  0  0  0  0  0  0  0  0  0  0  0
   -3.5564   -4.5409   -0.0779 H   0  0  0  0  0  0  0  0  0  0  0  0
   -1.9574   -4.3876   -0.8447 H   0  0  0  0  0  0  0  0  0  0  0  0
   -0.2057   -3.9870   -0.6959 H   0  0  0  0  0  0  0  0  0  0  0  0
    3.2304   -4.9460    1.6871 H   0  0  0  0  0  0  0  0  0  0  0  0
   -3.7135   -5.5327    4.6560 H   0  0  0  0  0  0  0  0  0  0  0  0
   -1.4976   -6.9308    5.7103 H   0  0  0  0  0  0  0  0  0  0  0  0
   -1.4062   -5.2398    6.2582 H   0  0  0  0  0  0  0  0  0  0  0  0
   -3.1696   -8.4141    6.5441 H   0  0  0  0  0  0  0  0  0  0  0  0
   -4.8697   -8.8668    8.3005 H   0  0  0  0  0  0  0  0  0  0  0  0
   -5.7035   -6.9646    9.6675 H   0  0  0  0  0  0  0  0  0  0  0  0
   -4.8264   -4.7030    9.2443 H   0  0  0  0  0  0  0  0  0  0  0  0
    4.3450   -4.5588    0.2763 H   0  0  0  0  0  0  0  0  0  0  0  0
    5.7644   -4.0010   -1.6801 H   0  0  0  0  0  0  0  0  0  0  0  0
    0.9085   -3.5916   -2.1034 H   0  0  0  0  0  0  0  0  0  0  0  0
    3.5973   -1.8630   -4.9616 H   0  0  0  0  0  0  0  0  0  0  0  0
    4.9019   -2.5498   -5.9588 H   0  0  0  0  0  0  0  0  0  0  0  0
    3.4996   -3.5520   -5.5147 H   0  0  0  0  0  0  0  0  0  0  0  0
  1  2  1  0  0  0  0
  1 34  1  0  0  0  0
  1 35  1  0  0  0  0
  1 36  1  0  0  0  0
  2  3  1  0  0  0  0
  2 37  1  0  0  0  0
  2 38  1  0  0  0  0
  3  4  1  0  0  0  0
  3 39  1  0  0  0  0
  3 40  1  0  0  0  0
  4  5  1  0  0  0  0
  5  6  1  0  0  0  0
  5 41  1  0  0  0  0
  5 42  1  0  0  0  0
  6  7  1  0  0  0  0
  6 43  1  0  0  0  0
  6 44  1  0  0  0  0
  7 16  1  0  0  0  0
  7  8  1  0  0  0  0
  8 13  2  0  0  0  0
  8  9  1  0  0  0  0
  9 10  2  0  0  0  0
  9 45  1  0  0  0  0
 10 11  1  0  0  0  0
 10 26  1  0  0  0  0
 11 12  2  0  0  0  0
 11 46  1  0  0  0  0
 12 13  1  0  0  0  0
 13 14  1  0  0  0  0
 14 15  2  0  0  0  0
 15 16  1  0  0  0  0
 15 18  1  0  0  0  0
 16 17  2  0  0  0  0
 18 19  1  0  0  0  0
 18 47  1  0  0  0  0
 19 20  1  0  0  0  0
 19 48  1  0  0  0  0
 19 49  1  0  0  0  0
 20 25  2  0  0  0  0
 20 21  1  0  0  0  0
 21 22  2  0  0  0  0
 21 50  1  0  0  0  0
 22 23  1  0  0  0  0
 22 51  1  0  0  0  0
 23 24  2  0  0  0  0
 23 52  1  0  0  0  0
 24 25  1  0  0  0  0
 24 53  1  0  0  0  0
 26 31  2  0  0  0  0
 26 27  1  0  0  0  0
 27 28  2  0  0  0  0
 27 54  1  0  0  0  0
 28 29  1  0  0  0  0
 28 55  1  0  0  0  0
 29 30  2  0  0  0  0
 29 32  1  0  0  0  0
 30 31  1  0  0  0  0
 31 56  1  0  0  0  0
 32 33  1  0  0  0  0
 33 57  1  0  0  0  0
 33 58  1  0  0  0  0
 33 59  1  0  0  0  0
M  END
$$$$
CHEMBL1098465
  -OEChem-07121202283D

 67 70  0     0  0  0  0  0  0999 V2000
   -0.4424    1.2774    0.4355 C   0  0  0  0  0  0  0  0  0  0  0  0
    0.1305   -0.1413    0.4416 C   0  0  0  0  0  0  0  0  0  0  0  0
    0.8494   -0.3983   -0.8577 C   0  0  0  0  0  0  0  0  0  0  0  0
    0.2668   -0.9283   -2.0286 C   0  0  0  0  0  0  0  0  0  0  0  0
    1.2855   -1.0019   -2.9944 C   0  0  0  0  0  0  0  0  0  0  0  0
    0.9678   -1.5013   -4.2654 C   0  0  0  0  0  0  0  0  0  0  0  0
   -0.2807   -1.8840   -4.5051 N   0  0  0  0  0  0  0  0  0  0  0  0
   -1.2176   -1.7999   -3.5675 C   0  0  0  0  0  0  0  0  0  0  0  0
   -0.9663   -1.3368   -2.3574 N   0  0  0  0  0  0  0  0  0  0  0  0
   -2.5054   -2.2127   -3.8709 N   0  0  0  0  0  0  0  0  0  0  0  0
   -2.8132   -2.7306   -5.2063 C   0  0  0  0  0  0  0  0  0  0  0  0
   -4.2930   -3.1126   -5.2766 C   0  0  0  0  0  0  0  0  0  0  0  0
   -4.5658   -4.2819   -4.3261 C   0  0  0  0  0  0  0  0  0  0  0  0
   -6.0286   -4.7105   -4.4600 C   0  0  0  0  0  0  0  0  0  0  0  0
   -6.2953   -5.1286   -5.8415 N   0  3  0  0  0  0  0  0  0  0  0  0
   -6.1051   -3.9924   -6.7512 C   0  0  0  0  0  0  0  0  0  0  0  0
   -4.6452   -3.5363   -6.7055 C   0  0  0  0  0  0  0  0  0  0  0  0
    1.9369   -1.5932   -5.2513 N   0  0  0  0  0  0  0  0  0  0  0  0
    1.5788   -1.9504   -6.5480 C   0  0  0  0  0  0  0  0  0  0  0  0
    0.2561   -1.8202   -6.9584 C   0  0  0  0  0  0  0  0  0  0  0  0
   -0.0860   -2.1789   -8.2498 C   0  0  0  0  0  0  0  0  0  0  0  0
    0.9103   -2.6576   -9.0905 C   0  0  0  0  0  0  0  0  0  0  0  0
    2.2029   -2.7607   -8.6168 C   0  0  0  0  0  0  0  0  0  0  0  0
    2.5012   -2.4060   -7.3814 N   0  0  0  0  0  0  0  0  0  0  0  0
   -1.5078   -2.0534   -8.7333 C   0  0  0  0  0  0  0  0  0  0  0  0
    2.4268   -0.5285   -2.4020 N   0  0  0  0  0  0  0  0  0  0  0  0
    2.1109   -0.1624   -1.0870 N   0  0  0  0  0  0  0  0  0  0  0  0
    3.7439   -0.4191   -3.0341 C   0  0  0  0  0  0  0  0  0  0  0  0
    3.9004    0.9732   -3.6489 C   0  0  0  0  0  0  0  0  0  0  0  0
    5.1852    1.0800   -4.2655 O   0  0  0  0  0  0  0  0  0  0  0  0
    5.4344    2.3489   -4.8735 C   0  0  0  0  0  0  0  0  0  0  0  0
    6.8309    2.3494   -5.4985 C   0  0  0  0  0  0  0  0  0  0  0  0
    0.3689    1.9963    0.3208 H   0  0  0  0  0  0  0  0  0  0  0  0
   -1.1417    1.3834   -0.3938 H   0  0  0  0  0  0  0  0  0  0  0  0
   -0.9624    1.4633    1.3753 H   0  0  0  0  0  0  0  0  0  0  0  0
    0.8298   -0.2472    1.2710 H   0  0  0  0  0  0  0  0  0  0  0  0
   -0.6808   -0.8602    0.5563 H   0  0  0  0  0  0  0  0  0  0  0  0
   -3.2030   -2.1588   -3.1990 H   0  0  0  0  0  0  0  0  0  0  0  0
   -2.6000   -1.9640   -5.9513 H   0  0  0  0  0  0  0  0  0  0  0  0
   -2.2010   -3.6103   -5.4048 H   0  0  0  0  0  0  0  0  0  0  0  0
   -4.9044   -2.2573   -4.9889 H   0  0  0  0  0  0  0  0  0  0  0  0
   -3.9164   -5.1189   -4.5829 H   0  0  0  0  0  0  0  0  0  0  0  0
   -4.3703   -3.9702   -3.3001 H   0  0  0  0  0  0  0  0  0  0  0  0
   -6.2262   -5.5427   -3.7844 H   0  0  0  0  0  0  0  0  0  0  0  0
   -6.6771   -3.8730   -4.2027 H   0  0  0  0  0  0  0  0  0  0  0  0
   -5.6612   -5.8712   -6.0954 H   0  0  0  0  0  0  0  0  0  0  0  0
   -6.3592   -4.2946   -7.7672 H   0  0  0  0  0  0  0  0  0  0  0  0
   -6.7520   -3.1703   -6.4451 H   0  0  0  0  0  0  0  0  0  0  0  0
   -4.5065   -2.6916   -7.3802 H   0  0  0  0  0  0  0  0  0  0  0  0
   -3.9975   -4.3577   -7.0117 H   0  0  0  0  0  0  0  0  0  0  0  0
    2.8650   -1.4086   -5.0379 H   0  0  0  0  0  0  0  0  0  0  0  0
   -0.4937   -1.4445   -6.2779 H   0  0  0  0  0  0  0  0  0  0  0  0
    0.6762   -2.9465  -10.1044 H   0  0  0  0  0  0  0  0  0  0  0  0
    2.9808   -3.1325   -9.2671 H   0  0  0  0  0  0  0  0  0  0  0  0
   -1.6582   -1.0648   -9.1671 H   0  0  0  0  0  0  0  0  0  0  0  0
   -1.7033   -2.8150   -9.4883 H   0  0  0  0  0  0  0  0  0  0  0  0
   -2.1902   -2.1898   -7.8944 H   0  0  0  0  0  0  0  0  0  0  0  0
    4.5204   -0.5749   -2.2852 H   0  0  0  0  0  0  0  0  0  0  0  0
    3.8359   -1.1737   -3.8153 H   0  0  0  0  0  0  0  0  0  0  0  0
    3.1239    1.1290   -4.3979 H   0  0  0  0  0  0  0  0  0  0  0  0
    3.8085    1.7278   -2.8678 H   0  0  0  0  0  0  0  0  0  0  0  0
    4.6897    2.5333   -5.6479 H   0  0  0  0  0  0  0  0  0  0  0  0
    5.3743    3.1320   -4.1178 H   0  0  0  0  0  0  0  0  0  0  0  0
    7.5756    2.1650   -4.7242 H   0  0  0  0  0  0  0  0  0  0  0  0
    6.8910    1.5663   -6.2543 H   0  0  0  0  0  0  0  0  0  0  0  0
    7.0210    3.3173   -5.9623 H   0  0  0  0  0  0  0  0  0  0  0  0
   -7.2453   -5.4608   -5.9139 H   0  0  0  0  0  0  0  0  0  0  0  0
  1  2  1  0  0  0  0
  1 33  1  0  0  0  0
  1 34  1  0  0  0  0
  1 35  1  0  0  0  0
  2  3  1  0  0  0  0
  2 36  1  0  0  0  0
  2 37  1  0  0  0  0
  3 27  2  0  0  0  0
  3  4  1  0  0  0  0
  4  9  2  0  0  0  0
  4  5  1  0  0  0  0
  5  6  2  0  0  0  0
  5 26  1  0  0  0  0
  6  7  1  0  0  0  0
  6 18  1  0  0  0  0
  7  8  2  0  0  0  0
  8  9  1  0  0  0  0
  8 10  1  0  0  0  0
 10 11  1  0  0  0  0
 10 38  1  0  0  0  0
 11 12  1  0  0  0  0
 11 39  1  0  0  0  0
 11 40  1  0  0  0  0
 12 17  1  0  0  0  0
 12 13  1  0  0  0  0
 12 41  1  0  0  0  0
 13 14  1  0  0  0  0
 13 42  1  0  0  0  0
 13 43  1  0  0  0  0
 14 15  1  0  0  0  0
 14 44  1  0  0  0  0
 14 45  1  0  0  0  0
 15 16  1  0  0  0  0
 15 46  1  0  0  0  0
 15 67  1  0  0  0  0
 16 17  1  0  0  0  0
 16 47  1  0  0  0  0
 16 48  1  0  0  0  0
 17 49  1  0  0  0  0
 17 50  1  0  0  0  0
 18 19  1  0  0  0  0
 18 51  1  0  0  0  0
 19 24  2  0  0  0  0
 19 20  1  0  0  0  0
 20 21  2  0  0  0  0
 20 52  1  0  0  0  0
 21 22  1  0  0  0  0
 21 25  1  0  0  0  0
 22 23  2  0  0  0  0
 22 53  1  0  0  0  0
 23 24  1  0  0  0  0
 23 54  1  0  0  0  0
 25 55  1  0  0  0  0
 25 56  1  0  0  0  0
 25 57  1  0  0  0  0
 26 27  1  0  0  0  0
 26 28  1  0  0  0  0
 28 29  1  0  0  0  0
 28 58  1  0  0  0  0
 28 59  1  0  0  0  0
 29 30  1  0  0  0  0
 29 60  1  0  0  0  0
 29 61  1  0  0  0  0
 30 31  1  0  0  0  0
 31 32  1  0  0  0  0
 31 62  1  0  0  0  0
 31 63  1  0  0  0  0
 32 64  1  0  0  0  0
 32 65  1  0  0  0  0
 32 66  1  0  0  0  0
M  CHG  1  15   1
M  END
$$$$
CHEMBL1098465
  -OEChem-07121202283D

 68 71  0     0  0  0  0  0  0999 V2000
    0.6256    0.8303   -0.0266 C   0  0  0  0  0  0  0  0  0  0  0  0
    0.2341   -0.6075   -0.3738 C   0  0  0  0  0  0  0  0  0  0  0  0
   -1.2565   -0.7720   -0.2253 C   0  0  0  0  0  0  0  0  0  0  0  0
   -1.9271   -1.1601    0.9542 C   0  0  0  0  0  0  0  0  0  0  0  0
   -3.2999   -1.1880    0.6532 C   0  0  0  0  0  0  0  0  0  0  0  0
   -4.1999   -1.5484    1.6660 C   0  0  0  0  0  0  0  0  0  0  0  0
   -3.7198   -1.8483    2.8669 N   0  0  0  0  0  0  0  0  0  0  0  0
   -2.4156   -1.8111    3.1150 C   0  0  0  0  0  0  0  0  0  0  0  0
   -1.5308   -1.4779    2.1941 N   0  0  0  0  0  0  0  0  0  0  0  0
   -1.9678   -2.1331    4.3865 N   0  0  0  0  0  0  0  0  0  0  0  0
   -2.9277   -2.5061    5.4285 C   0  0  0  0  0  0  0  0  0  0  0  0
   -2.1780   -2.8110    6.7269 C   0  0  0  0  0  0  0  0  0  0  0  0
   -1.3019   -4.0520    6.5332 C   0  0  0  0  0  0  0  0  0  0  0  0
   -0.6168   -4.3977    7.8571 C   0  0  0  0  0  0  0  0  0  0  0  0
   -1.6325   -4.6690    8.8815 N   0  3  0  0  0  0  0  0  0  0  0  0
   -2.4304   -3.4611    9.1240 C   0  0  0  0  0  0  0  0  0  0  0  0
   -3.1852   -3.0793    7.8488 C   0  0  0  0  0  0  0  0  0  0  0  0
   -5.5626   -1.5903    1.4188 N   0  0  0  0  0  0  0  0  0  0  0  0
   -6.4528   -1.8181    2.4641 C   0  0  0  0  0  0  0  0  0  0  0  0
   -6.0678   -1.5371    3.7710 C   0  0  0  0  0  0  0  0  0  0  0  0
   -6.9624   -1.7683    4.8003 C   0  0  0  0  0  0  0  0  0  0  0  0
   -8.2169   -2.2746    4.4867 C   0  0  0  0  0  0  0  0  0  0  0  0
   -8.5322   -2.5306    3.1673 C   0  0  0  0  0  0  0  0  0  0  0  0
   -7.6603   -2.2952    2.2053 N   0  3  0  0  0  0  0  0  0  0  0  0
   -6.5841   -1.4776    6.2298 C   0  0  0  0  0  0  0  0  0  0  0  0
   -3.4235   -0.8267   -0.6629 N   0  0  0  0  0  0  0  0  0  0  0  0
   -2.1396   -0.5738   -1.1636 N   0  0  0  0  0  0  0  0  0  0  0  0
   -4.6775   -0.7182   -1.4125 C   0  0  0  0  0  0  0  0  0  0  0  0
   -5.2893    0.6656   -1.1855 C   0  0  0  0  0  0  0  0  0  0  0  0
   -6.5125    0.7714   -1.9167 O   0  0  0  0  0  0  0  0  0  0  0  0
   -7.1687    2.0326   -1.7725 C   0  0  0  0  0  0  0  0  0  0  0  0
   -8.4595    2.0328   -2.5938 C   0  0  0  0  0  0  0  0  0  0  0  0
    1.7038    0.9493   -0.1340 H   0  0  0  0  0  0  0  0  0  0  0  0
    0.1152    1.5186   -0.7002 H   0  0  0  0  0  0  0  0  0  0  0  0
    0.3368    1.0472    1.0018 H   0  0  0  0  0  0  0  0  0  0  0  0
    0.5229   -0.8244   -1.4022 H   0  0  0  0  0  0  0  0  0  0  0  0
    0.7445   -1.2958    0.2998 H   0  0  0  0  0  0  0  0  0  0  0  0
   -1.0189   -2.1115    4.5864 H   0  0  0  0  0  0  0  0  0  0  0  0
   -3.6220   -1.6825    5.5946 H   0  0  0  0  0  0  0  0  0  0  0  0
   -3.4816   -3.3902    5.1126 H   0  0  0  0  0  0  0  0  0  0  0  0
   -1.5522   -1.9597    6.9949 H   0  0  0  0  0  0  0  0  0  0  0  0
   -1.9225   -4.8896    6.2149 H   0  0  0  0  0  0  0  0  0  0  0  0
   -0.5461   -3.8491    5.7744 H   0  0  0  0  0  0  0  0  0  0  0  0
    0.0079   -5.2807    7.7226 H   0  0  0  0  0  0  0  0  0  0  0  0
    0.0037   -3.5596    8.1743 H   0  0  0  0  0  0  0  0  0  0  0  0
   -2.2371   -5.4125    8.5656 H   0  0  0  0  0  0  0  0  0  0  0  0
   -3.1445   -3.6527    9.9248 H   0  0  0  0  0  0  0  0  0  0  0  0
   -1.7712   -2.6430    9.4142 H   0  0  0  0  0  0  0  0  0  0  0  0
   -3.7756   -2.1813    8.0305 H   0  0  0  0  0  0  0  0  0  0  0  0
   -3.8449   -3.8968    7.5579 H   0  0  0  0  0  0  0  0  0  0  0  0
   -5.8961   -1.4608    0.5172 H   0  0  0  0  0  0  0  0  0  0  0  0
   -5.0836   -1.1441    3.9791 H   0  0  0  0  0  0  0  0  0  0  0  0
   -8.9383   -2.4666    5.2671 H   0  0  0  0  0  0  0  0  0  0  0  0
   -9.5066   -2.9245    2.9189 H   0  0  0  0  0  0  0  0  0  0  0  0
   -6.8541   -0.4505    6.4754 H   0  0  0  0  0  0  0  0  0  0  0  0
   -7.1150   -2.1612    6.8923 H   0  0  0  0  0  0  0  0  0  0  0  0
   -5.5096   -1.6108    6.3556 H   0  0  0  0  0  0  0  0  0  0  0  0
   -4.4788   -0.8578   -2.4751 H   0  0  0  0  0  0  0  0  0  0  0  0
   -5.3733   -1.4839   -1.0693 H   0  0  0  0  0  0  0  0  0  0  0  0
   -5.4880    0.8052   -0.1229 H   0  0  0  0  0  0  0  0  0  0  0  0
   -4.5935    1.4312   -1.5287 H   0  0  0  0  0  0  0  0  0  0  0  0
   -7.4063    2.2006   -0.7221 H   0  0  0  0  0  0  0  0  0  0  0  0
   -6.5118    2.8266   -2.1279 H   0  0  0  0  0  0  0  0  0  0  0  0
   -8.2219    1.8649   -3.6443 H   0  0  0  0  0  0  0  0  0  0  0  0
   -9.1164    1.2388   -2.2385 H   0  0  0  0  0  0  0  0  0  0  0  0
   -8.9600    2.9948   -2.4838 H   0  0  0  0  0  0  0  0  0  0  0  0
   -1.1784   -4.9485    9.7381 H   0  0  0  0  0  0  0  0  0  0  0  0
   -7.9088   -2.4802    1.2860 H   0  0  0  0  0  0  0  0  0  0  0  0
  1  2  1  0  0  0  0
  1 33  1  0  0  0  0
  1 34  1  0  0  0  0
  1 35  1  0  0  0  0
  2  3  1  0  0  0  0
  2 36  1  0  0  0  0
  2 37  1  0  0  0  0
  3 27  2  0  0  0  0
  3  4  1  0  0  0  0
  4  9  2  0  0  0  0
  4  5  1  0  0  0  0
  5  6  2  0  0  0  0
  5 26  1  0  0  0  0
  6  7  1  0  0  0  0
  6 18  1  0  0  0  0
  7  8  2  0  0  0  0
  8  9  1  0  0  0  0
  8 10  1  0  0  0  0
 10 11  1  0  0  0  0
 10 38  1  0  0  0  0
 11 12  1  0  0  0  0
 11 39  1  0  0  0  0
 11 40  1  0  0  0  0
 12 17  1  0  0  0  0
 12 13  1  0  0  0  0
 12 41  1  0  0  0  0
 13 14  1  0  0  0  0
 13 42  1  0  0  0  0
 13 43  1  0  0  0  0
 14 15  1  0  0  0  0
 14 44  1  0  0  0  0
 14 45  1  0  0  0  0
 15 16  1  0  0  0  0
 15 46  1  0  0  0  0
 15 67  1  0  0  0  0
 16 17  1  0  0  0  0
 16 47  1  0  0  0  0
 16 48  1  0  0  0  0
 17 49  1  0  0  0  0
 17 50  1  0  0  0  0
 18 19  1  0  0  0  0
 18 51  1  0  0  0  0
 19 24  2  0  0  0  0
 19 20  1  0  0  0  0
 20 21  2  0  0  0  0
 20 52  1  0  0  0  0
 21 22  1  0  0  0  0
 21 25  1  0  0  0  0
 22 23  2  0  0  0  0
 22 53  1  0  0  0  0
 23 24  1  0  0  0  0
 23 54  1  0  0  0  0
 24 68  1  0  0  0  0
 25 55  1  0  0  0  0
 25 56  1  0  0  0  0
 25 57  1  0  0  0  0
 26 27  1  0  0  0  0
 26 28  1  0  0  0  0
 28 29  1  0  0  0  0
 28 58  1  0  0  0  0
 28 59  1  0  0  0  0
 29 30  1  0  0  0  0
 29 60  1  0  0  0  0
 29 61  1  0  0  0  0
 30 31  1  0  0  0  0
 31 32  1  0  0  0  0
 31 62  1  0  0  0  0
 31 63  1  0  0  0  0
 32 64  1  0  0  0  0
 32 65  1  0  0  0  0
 32 66  1  0  0  0  0
M  CHG  2  15   1  24   1
M  END
$$$$
CHEMBL1094490
  -OEChem-07121202283D

 59 62  0     0  0  0  0  0  0999 V2000
   -0.0934   -0.0654    2.6227 C   0  0  0  0  0  0  0  0  0  0  0  0
    0.2114   -1.4476    2.0417 C   0  0  0  0  0  0  0  0  0  0  0  0
    0.5602   -1.3180    0.6620 O   0  0  0  0  0  0  0  0  0  0  0  0
    0.8652   -2.5580    0.0207 C   0  0  0  0  0  0  0  0  0  0  0  0
    1.2225   -2.3001   -1.4445 C   0  0  0  0  0  0  0  0  0  0  0  0
    1.5352   -3.5714   -2.1020 N   0  0  0  0  0  0  0  0  0  0  0  0
    2.7433   -4.2174   -2.0740 C   0  0  0  0  0  0  0  0  0  0  0  0
    2.5932   -5.3913   -2.8326 C   0  0  0  0  0  0  0  0  0  0  0  0
    1.2625   -5.4086   -3.3023 C   0  0  0  0  0  0  0  0  0  0  0  0
    0.6499   -4.3440   -2.8652 N   0  0  0  0  0  0  0  0  0  0  0  0
    0.6490   -6.4836   -4.1618 C   0  0  0  0  0  0  0  0  0  0  0  0
    3.6426   -6.2139   -2.9649 N   0  0  0  0  0  0  0  0  0  0  0  0
    4.7960   -5.9249   -2.3922 C   0  0  0  0  0  0  0  0  0  0  0  0
    4.9746   -4.8256   -1.6686 N   0  0  0  0  0  0  0  0  0  0  0  0
    3.9888   -3.9554   -1.4860 C   0  0  0  0  0  0  0  0  0  0  0  0
    4.1866   -2.8117   -0.7292 N   0  0  0  0  0  0  0  0  0  0  0  0
    5.3880   -2.6246   -0.0520 C   0  0  0  0  0  0  0  0  0  0  0  0
    6.2116   -3.7158    0.2051 C   0  0  0  0  0  0  0  0  0  0  0  0
    7.4028   -3.5155    0.8791 C   0  0  0  0  0  0  0  0  0  0  0  0
    7.7315   -2.2256    1.2748 C   0  0  0  0  0  0  0  0  0  0  0  0
    6.8668   -1.1889    0.9864 C   0  0  0  0  0  0  0  0  0  0  0  0
    5.7393   -1.4088    0.3370 N   0  0  0  0  0  0  0  0  0  0  0  0
    8.3229   -4.6711    1.1776 C   0  0  0  0  0  0  0  0  0  0  0  0
    5.8588   -6.8003   -2.5510 N   0  0  0  0  0  0  0  0  0  0  0  0
    7.1743   -6.4625   -2.0019 C   0  0  0  0  0  0  0  0  0  0  0  0
    7.9092   -5.5296   -2.9692 C   0  0  0  0  0  0  0  0  0  0  0  0
    9.3118   -5.2455   -2.4254 C   0  0  0  0  0  0  0  0  0  0  0  0
   10.0120   -6.4788   -2.2499 O   0  0  0  0  0  0  0  0  0  0  0  0
    9.3963   -7.3721   -1.3199 C   0  0  0  0  0  0  0  0  0  0  0  0
    7.9971   -7.7416   -1.8193 C   0  0  0  0  0  0  0  0  0  0  0  0
    0.7870    0.5704    2.5287 H   0  0  0  0  0  0  0  0  0  0  0  0
   -0.9247    0.3824    2.0782 H   0  0  0  0  0  0  0  0  0  0  0  0
   -0.3595   -0.1642    3.6751 H   0  0  0  0  0  0  0  0  0  0  0  0
    1.0427   -1.8953    2.5862 H   0  0  0  0  0  0  0  0  0  0  0  0
   -0.6690   -2.0834    2.1357 H   0  0  0  0  0  0  0  0  0  0  0  0
    1.7102   -3.0288    0.5232 H   0  0  0  0  0  0  0  0  0  0  0  0
   -0.0016   -3.2168    0.0727 H   0  0  0  0  0  0  0  0  0  0  0  0
    0.3776   -1.8293   -1.9470 H   0  0  0  0  0  0  0  0  0  0  0  0
    2.0893   -1.6413   -1.4965 H   0  0  0  0  0  0  0  0  0  0  0  0
    0.2098   -7.2515   -3.5250 H   0  0  0  0  0  0  0  0  0  0  0  0
   -0.1260   -6.0470   -4.7917 H   0  0  0  0  0  0  0  0  0  0  0  0
    1.4195   -6.9300   -4.7905 H   0  0  0  0  0  0  0  0  0  0  0  0
    3.4878   -2.1415   -0.6714 H   0  0  0  0  0  0  0  0  0  0  0  0
    5.9247   -4.7059   -0.1168 H   0  0  0  0  0  0  0  0  0  0  0  0
    8.6541   -2.0355    1.8031 H   0  0  0  0  0  0  0  0  0  0  0  0
    7.1184   -0.1842    1.2922 H   0  0  0  0  0  0  0  0  0  0  0  0
    9.0912   -4.7323    0.4069 H   0  0  0  0  0  0  0  0  0  0  0  0
    8.7938   -4.5191    2.1488 H   0  0  0  0  0  0  0  0  0  0  0  0
    7.7491   -5.5978    1.1931 H   0  0  0  0  0  0  0  0  0  0  0  0
    5.7316   -7.6365   -3.0258 H   0  0  0  0  0  0  0  0  0  0  0  0
    7.0512   -5.9676   -1.0386 H   0  0  0  0  0  0  0  0  0  0  0  0
    7.9871   -6.0061   -3.9464 H   0  0  0  0  0  0  0  0  0  0  0  0
    7.3581   -4.5937   -3.0621 H   0  0  0  0  0  0  0  0  0  0  0  0
    9.8547   -4.6164   -3.1308 H   0  0  0  0  0  0  0  0  0  0  0  0
    9.2330   -4.7326   -1.4668 H   0  0  0  0  0  0  0  0  0  0  0  0
   10.0000   -8.2751   -1.2289 H   0  0  0  0  0  0  0  0  0  0  0  0
    9.3186   -6.8870   -0.3468 H   0  0  0  0  0  0  0  0  0  0  0  0
    7.5088   -8.3878   -1.0898 H   0  0  0  0  0  0  0  0  0  0  0  0
    8.0767   -8.2628   -2.7733 H   0  0  0  0  0  0  0  0  0  0  0  0
  1  2  1  0  0  0  0
  1 31  1  0  0  0  0
  1 32  1  0  0  0  0
  1 33  1  0  0  0  0
  2  3  1  0  0  0  0
  2 34  1  0  0  0  0
  2 35  1  0  0  0  0
  3  4  1  0  0  0  0
  4  5  1  0  0  0  0
  4 36  1  0  0  0  0
  4 37  1  0  0  0  0
  5  6  1  0  0  0  0
  5 38  1  0  0  0  0
  5 39  1  0  0  0  0
  6 10  1  0  0  0  0
  6  7  1  0  0  0  0
  7 15  2  0  0  0  0
  7  8  1  0  0  0  0
  8  9  1  0  0  0  0
  8 12  2  0  0  0  0
  9 10  2  0  0  0  0
  9 11  1  0  0  0  0
 11 40  1  0  0  0  0
 11 41  1  0  0  0  0
 11 42  1  0  0  0  0
 12 13  1  0  0  0  0
 13 14  2  0  0  0  0
 13 24  1  0  0  0  0
 14 15  1  0  0  0  0
 15 16  1  0  0  0  0
 16 17  1  0  0  0  0
 16 43  1  0  0  0  0
 17 22  2  0  0  0  0
 17 18  1  0  0  0  0
 18 19  2  0  0  0  0
 18 44  1  0  0  0  0
 19 20  1  0  0  0  0
 19 23  1  0  0  0  0
 20 21  2  0  0  0  0
 20 45  1  0  0  0  0
 21 22  1  0  0  0  0
 21 46  1  0  0  0  0
 23 47  1  0  0  0  0
 23 48  1  0  0  0  0
 23 49  1  0  0  0  0
 24 25  1  0  0  0  0
 24 50  1  0  0  0  0
 25 30  1  0  0  0  0
 25 26  1  0  0  0  0
 25 51  1  0  0  0  0
 26 27  1  0  0  0  0
 26 52  1  0  0  0  0
 26 53  1  0  0  0  0
 27 28  1  0  0  0  0
 27 54  1  0  0  0  0
 27 55  1  0  0  0  0
 28 29  1  0  0  0  0
 29 30  1  0  0  0  0
 29 56  1  0  0  0  0
 29 57  1  0  0  0  0
 30 58  1  0  0  0  0
 30 59  1  0  0  0  0
M  END
$$$$
CHEMBL1094490
  -OEChem-07121202283D

 60 63  0     0  0  0  0  0  0999 V2000
   -0.2284   -0.7441    2.6452 C   0  0  0  0  0  0  0  0  0  0  0  0
    0.1115   -2.0742    1.9698 C   0  0  0  0  0  0  0  0  0  0  0  0
    0.4482   -1.8409    0.6008 O   0  0  0  0  0  0  0  0  0  0  0  0
    0.7840   -3.0251   -0.1251 C   0  0  0  0  0  0  0  0  0  0  0  0
    1.1250   -2.6577   -1.5707 C   0  0  0  0  0  0  0  0  0  0  0  0
    1.4693   -3.8717   -2.3149 N   0  0  0  0  0  0  0  0  0  0  0  0
    2.6951   -4.4838   -2.3359 C   0  0  0  0  0  0  0  0  0  0  0  0
    2.5734   -5.6068   -3.1725 C   0  0  0  0  0  0  0  0  0  0  0  0
    1.2411   -5.6296   -3.6371 C   0  0  0  0  0  0  0  0  0  0  0  0
    0.6015   -4.6151   -3.1259 N   0  0  0  0  0  0  0  0  0  0  0  0
    0.6529   -6.6603   -4.5659 C   0  0  0  0  0  0  0  0  0  0  0  0
    3.6447   -6.3885   -3.3648 N   0  0  0  0  0  0  0  0  0  0  0  0
    4.7928   -6.1069   -2.7780 C   0  0  0  0  0  0  0  0  0  0  0  0
    4.9448   -5.0550   -1.9816 N   0  0  0  0  0  0  0  0  0  0  0  0
    3.9361   -4.2275   -1.7360 C   0  0  0  0  0  0  0  0  0  0  0  0
    4.1063   -3.1331   -0.9035 N   0  0  0  0  0  0  0  0  0  0  0  0
    5.3267   -2.9258   -0.2672 C   0  0  0  0  0  0  0  0  0  0  0  0
    6.1750   -4.0036   -0.0354 C   0  0  0  0  0  0  0  0  0  0  0  0
    7.3848   -3.7834    0.5979 C   0  0  0  0  0  0  0  0  0  0  0  0
    7.7067   -2.4876    0.9796 C   0  0  0  0  0  0  0  0  0  0  0  0
    6.8170   -1.4650    0.7181 C   0  0  0  0  0  0  0  0  0  0  0  0
    5.6721   -1.7038    0.1073 N   0  3  0  0  0  0  0  0  0  0  0  0
    8.3320   -4.9241    0.8680 C   0  0  0  0  0  0  0  0  0  0  0  0
    5.8787   -6.9390   -3.0005 N   0  0  0  0  0  0  0  0  0  0  0  0
    7.1861   -6.6056   -2.4297 C   0  0  0  0  0  0  0  0  0  0  0  0
    7.8922   -5.5853   -3.3278 C   0  0  0  0  0  0  0  0  0  0  0  0
    9.2881   -5.3026   -2.7663 C   0  0  0  0  0  0  0  0  0  0  0  0
   10.0224   -6.5256   -2.6810 O   0  0  0  0  0  0  0  0  0  0  0  0
    9.4342   -7.5003   -1.8173 C   0  0  0  0  0  0  0  0  0  0  0  0
    8.0442   -7.8713   -2.3407 C   0  0  0  0  0  0  0  0  0  0  0  0
    0.6332   -0.0786    2.5913 H   0  0  0  0  0  0  0  0  0  0  0  0
   -1.0753   -0.2841    2.1361 H   0  0  0  0  0  0  0  0  0  0  0  0
   -0.4852   -0.9221    3.6895 H   0  0  0  0  0  0  0  0  0  0  0  0
    0.9584   -2.5343    2.4789 H   0  0  0  0  0  0  0  0  0  0  0  0
   -0.7500   -2.7397    2.0237 H   0  0  0  0  0  0  0  0  0  0  0  0
    1.6449   -3.5049    0.3405 H   0  0  0  0  0  0  0  0  0  0  0  0
   -0.0636   -3.7103   -0.1147 H   0  0  0  0  0  0  0  0  0  0  0  0
    0.2642   -2.1779   -2.0364 H   0  0  0  0  0  0  0  0  0  0  0  0
    1.9726   -1.9725   -1.5812 H   0  0  0  0  0  0  0  0  0  0  0  0
    0.2390   -7.4820   -3.9815 H   0  0  0  0  0  0  0  0  0  0  0  0
   -0.1376   -6.2037   -5.1615 H   0  0  0  0  0  0  0  0  0  0  0  0
    1.4320   -7.0407   -5.2266 H   0  0  0  0  0  0  0  0  0  0  0  0
    3.3749   -2.5113   -0.7641 H   0  0  0  0  0  0  0  0  0  0  0  0
    5.8927   -4.9989   -0.3455 H   0  0  0  0  0  0  0  0  0  0  0  0
    8.6434   -2.2821    1.4764 H   0  0  0  0  0  0  0  0  0  0  0  0
    7.0633   -0.4557    1.0132 H   0  0  0  0  0  0  0  0  0  0  0  0
    9.0784   -4.9720    0.0751 H   0  0  0  0  0  0  0  0  0  0  0  0
    8.8285   -4.7651    1.8252 H   0  0  0  0  0  0  0  0  0  0  0  0
    7.7741   -5.8600    0.8990 H   0  0  0  0  0  0  0  0  0  0  0  0
    5.7730   -7.7421   -3.5342 H   0  0  0  0  0  0  0  0  0  0  0  0
    7.0522   -6.1850   -1.4330 H   0  0  0  0  0  0  0  0  0  0  0  0
    7.9802   -5.9877   -4.3370 H   0  0  0  0  0  0  0  0  0  0  0  0
    7.3154   -4.6608   -3.3524 H   0  0  0  0  0  0  0  0  0  0  0  0
    9.8114   -4.6096   -3.4250 H   0  0  0  0  0  0  0  0  0  0  0  0
    9.1981   -4.8626   -1.7731 H   0  0  0  0  0  0  0  0  0  0  0  0
   10.0627   -8.3905   -1.7923 H   0  0  0  0  0  0  0  0  0  0  0  0
    9.3461   -7.0890   -0.8117 H   0  0  0  0  0  0  0  0  0  0  0  0
    7.5760   -8.5816   -1.6593 H   0  0  0  0  0  0  0  0  0  0  0  0
    8.1353   -8.3199   -3.3299 H   0  0  0  0  0  0  0  0  0  0  0  0
    5.0666   -0.9665   -0.0680 H   0  0  0  0  0  0  0  0  0  0  0  0
  1  2  1  0  0  0  0
  1 31  1  0  0  0  0
  1 32  1  0  0  0  0
  1 33  1  0  0  0  0
  2  3  1  0  0  0  0
  2 34  1  0  0  0  0
  2 35  1  0  0  0  0
  3  4  1  0  0  0  0
  4  5  1  0  0  0  0
  4 36  1  0  0  0  0
  4 37  1  0  0  0  0
  5  6  1  0  0  0  0
  5 38  1  0  0  0  0
  5 39  1  0  0  0  0
  6 10  1  0  0  0  0
  6  7  1  0  0  0  0
  7 15  2  0  0  0  0
  7  8  1  0  0  0  0
  8  9  1  0  0  0  0
  8 12  2  0  0  0  0
  9 10  2  0  0  0  0
  9 11  1  0  0  0  0
 11 40  1  0  0  0  0
 11 41  1  0  0  0  0
 11 42  1  0  0  0  0
 12 13  1  0  0  0  0
 13 14  2  0  0  0  0
 13 24  1  0  0  0  0
 14 15  1  0  0  0  0
 15 16  1  0  0  0  0
 16 17  1  0  0  0  0
 16 43  1  0  0  0  0
 17 22  2  0  0  0  0
 17 18  1  0  0  0  0
 18 19  2  0  0  0  0
 18 44  1  0  0  0  0
 19 20  1  0  0  0  0
 19 23  1  0  0  0  0
 20 21  2  0  0  0  0
 20 45  1  0  0  0  0
 21 22  1  0  0  0  0
 21 46  1  0  0  0  0
 22 60  1  0  0  0  0
 23 47  1  0  0  0  0
 23 48  1  0  0  0  0
 23 49  1  0  0  0  0
 24 25  1  0  0  0  0
 24 50  1  0  0  0  0
 25 30  1  0  0  0  0
 25 26  1  0  0  0  0
 25 51  1  0  0  0  0
 26 27  1  0  0  0  0
 26 52  1  0  0  0  0
 26 53  1  0  0  0  0
 27 28  1  0  0  0  0
 27 54  1  0  0  0  0
 27 55  1  0  0  0  0
 28 29  1  0  0  0  0
 29 30  1  0  0  0  0
 29 56  1  0  0  0  0
 29 57  1  0  0  0  0
 30 58  1  0  0  0  0
 30 59  1  0  0  0  0
M  CHG  1  22   1
M  END
$$$$
CHEMBL1094489
  -OEChem-07121202283D

 67 70  0     0  0  0  0  0  0999 V2000
    0.0668    0.3044    0.7146 C   0  0  0  0  0  0  0  0  0  0  0  0
    0.4281   -1.1569    0.4411 C   0  0  0  0  0  0  0  0  0  0  0  0
    0.9894   -1.2834   -0.9517 C   0  0  0  0  0  0  0  0  0  0  0  0
    0.2391   -1.5313   -2.1209 C   0  0  0  0  0  0  0  0  0  0  0  0
    1.1506   -1.5726   -3.1902 C   0  0  0  0  0  0  0  0  0  0  0  0
    0.6574   -1.8079   -4.4813 C   0  0  0  0  0  0  0  0  0  0  0  0
   -0.6489   -1.9820   -4.6417 N   0  0  0  0  0  0  0  0  0  0  0  0
   -1.4808   -1.9363   -3.6073 C   0  0  0  0  0  0  0  0  0  0  0  0
   -1.0634   -1.7178   -2.3745 N   0  0  0  0  0  0  0  0  0  0  0  0
   -2.8357   -2.1242   -3.8307 N   0  0  0  0  0  0  0  0  0  0  0  0
   -3.8053   -1.9496   -2.7407 C   0  0  0  0  0  0  0  0  0  0  0  0
   -4.8826   -0.9589   -3.1932 C   0  0  0  0  0  0  0  0  0  0  0  0
   -5.4962   -1.4442   -4.5086 C   0  0  0  0  0  0  0  0  0  0  0  0
   -4.4122   -1.5051   -5.5872 C   0  0  0  0  0  0  0  0  0  0  0  0
   -3.3302   -2.4960   -5.1634 C   0  0  0  0  0  0  0  0  0  0  0  0
   -6.5966   -0.4753   -4.9459 C   0  0  0  0  0  0  0  0  0  0  0  0
   -7.2661   -1.0024   -6.1425 N   0  3  0  0  0  0  0  0  0  0  0  0
    1.5158   -1.8573   -5.5678 N   0  0  0  0  0  0  0  0  0  0  0  0
    1.0361   -2.2409   -6.8168 C   0  0  0  0  0  0  0  0  0  0  0  0
   -0.3165   -2.0989   -7.1090 C   0  0  0  0  0  0  0  0  0  0  0  0
   -0.7797   -2.4842   -8.3541 C   0  0  0  0  0  0  0  0  0  0  0  0
    0.1289   -3.0004   -9.2686 C   0  0  0  0  0  0  0  0  0  0  0  0
    1.4576   -3.1133   -8.9114 C   0  0  0  0  0  0  0  0  0  0  0  0
    1.8721   -2.7327   -7.7179 N   0  0  0  0  0  0  0  0  0  0  0  0
   -2.2377   -2.3472   -8.7100 C   0  0  0  0  0  0  0  0  0  0  0  0
    2.3944   -1.3550   -2.6579 N   0  0  0  0  0  0  0  0  0  0  0  0
    2.2476   -1.1762   -1.2760 N   0  0  0  0  0  0  0  0  0  0  0  0
    3.6549   -1.3112   -3.4032 C   0  0  0  0  0  0  0  0  0  0  0  0
    3.8481    0.0856   -3.9969 C   0  0  0  0  0  0  0  0  0  0  0  0
    5.0777    0.1283   -4.7239 O   0  0  0  0  0  0  0  0  0  0  0  0
    5.3555    1.3960   -5.3221 C   0  0  0  0  0  0  0  0  0  0  0  0
    6.6883    1.3258   -6.0700 C   0  0  0  0  0  0  0  0  0  0  0  0
    0.9602    0.9224    0.6254 H   0  0  0  0  0  0  0  0  0  0  0  0
   -0.6781    0.6361   -0.0088 H   0  0  0  0  0  0  0  0  0  0  0  0
   -0.3392    0.3959    1.7220 H   0  0  0  0  0  0  0  0  0  0  0  0
    1.1730   -1.4886    1.1645 H   0  0  0  0  0  0  0  0  0  0  0  0
   -0.4653   -1.7749    0.5303 H   0  0  0  0  0  0  0  0  0  0  0  0
   -4.2667   -2.9086   -2.5049 H   0  0  0  0  0  0  0  0  0  0  0  0
   -3.2974   -1.5594   -1.8588 H   0  0  0  0  0  0  0  0  0  0  0  0
   -5.6597   -0.8935   -2.4316 H   0  0  0  0  0  0  0  0  0  0  0  0
   -4.4343    0.0235   -3.3415 H   0  0  0  0  0  0  0  0  0  0  0  0
   -5.9226   -2.4372   -4.3659 H   0  0  0  0  0  0  0  0  0  0  0  0
   -4.8545   -1.8284   -6.5296 H   0  0  0  0  0  0  0  0  0  0  0  0
   -3.9683   -0.5176   -5.7130 H   0  0  0  0  0  0  0  0  0  0  0  0
   -2.5088   -2.4662   -5.8793 H   0  0  0  0  0  0  0  0  0  0  0  0
   -3.7519   -3.5005   -5.1295 H   0  0  0  0  0  0  0  0  0  0  0  0
   -7.3239   -0.3647   -4.1416 H   0  0  0  0  0  0  0  0  0  0  0  0
   -6.1564    0.4955   -5.1737 H   0  0  0  0  0  0  0  0  0  0  0  0
   -6.5928   -1.1049   -6.8869 H   0  0  0  0  0  0  0  0  0  0  0  0
   -7.6735   -1.9011   -5.9315 H   0  0  0  0  0  0  0  0  0  0  0  0
    2.4510   -1.6246   -5.4581 H   0  0  0  0  0  0  0  0  0  0  0  0
   -0.9958   -1.6938   -6.3736 H   0  0  0  0  0  0  0  0  0  0  0  0
   -0.2006   -3.3108  -10.2492 H   0  0  0  0  0  0  0  0  0  0  0  0
    2.1677   -3.5143   -9.6194 H   0  0  0  0  0  0  0  0  0  0  0  0
   -2.4127   -1.3674   -9.1544 H   0  0  0  0  0  0  0  0  0  0  0  0
   -2.5120   -3.1240   -9.4237 H   0  0  0  0  0  0  0  0  0  0  0  0
   -2.8429   -2.4510   -7.8094 H   0  0  0  0  0  0  0  0  0  0  0  0
    4.4825   -1.5380   -2.7310 H   0  0  0  0  0  0  0  0  0  0  0  0
    3.6276   -2.0470   -4.2069 H   0  0  0  0  0  0  0  0  0  0  0  0
    3.0206    0.3123   -4.6691 H   0  0  0  0  0  0  0  0  0  0  0  0
    3.8755    0.8214   -3.1932 H   0  0  0  0  0  0  0  0  0  0  0  0
    4.5592    1.6499   -6.0218 H   0  0  0  0  0  0  0  0  0  0  0  0
    5.4141    2.1590   -4.5459 H   0  0  0  0  0  0  0  0  0  0  0  0
    7.4847    1.0719   -5.3704 H   0  0  0  0  0  0  0  0  0  0  0  0
    6.6297    0.5628   -6.8462 H   0  0  0  0  0  0  0  0  0  0  0  0
    6.9003    2.2928   -6.5263 H   0  0  0  0  0  0  0  0  0  0  0  0
   -7.9918   -0.3635   -6.4308 H   0  0  0  0  0  0  0  0  0  0  0  0
  1  2  1  0  0  0  0
  1 33  1  0  0  0  0
  1 34  1  0  0  0  0
  1 35  1  0  0  0  0
  2  3  1  0  0  0  0
  2 36  1  0  0  0  0
  2 37  1  0  0  0  0
  3 27  2  0  0  0  0
  3  4  1  0  0  0  0
  4  9  2  0  0  0  0
  4  5  1  0  0  0  0
  5  6  2  0  0  0  0
  5 26  1  0  0  0  0
  6  7  1  0  0  0  0
  6 18  1  0  0  0  0
  7  8  2  0  0  0  0
  8  9  1  0  0  0  0
  8 10  1  0  0  0  0
 10 15  1  0  0  0  0
 10 11  1  0  0  0  0
 11 12  1  0  0  0  0
 11 38  1  0  0  0  0
 11 39  1  0  0  0  0
 12 13  1  0  0  0  0
 12 40  1  0  0  0  0
 12 41  1  0  0  0  0
 13 14  1  0  0  0  0
 13 16  1  0  0  0  0
 13 42  1  0  0  0  0
 14 15  1  0  0  0  0
 14 43  1  0  0  0  0
 14 44  1  0  0  0  0
 15 45  1  0  0  0  0
 15 46  1  0  0  0  0
 16 17  1  0  0  0  0
 16 47  1  0  0  0  0
 16 48  1  0  0  0  0
 17 49  1  0  0  0  0
 17 50  1  0  0  0  0
 17 67  1  0  0  0  0
 18 19  1  0  0  0  0
 18 51  1  0  0  0  0
 19 24  2  0  0  0  0
 19 20  1  0  0  0  0
 20 21  2  0  0  0  0
 20 52  1  0  0  0  0
 21 22  1  0  0  0  0
 21 25  1  0  0  0  0
 22 23  2  0  0  0  0
 22 53  1  0  0  0  0
 23 24  1  0  0  0  0
 23 54  1  0  0  0  0
 25 55  1  0  0  0  0
 25 56  1  0  0  0  0
 25 57  1  0  0  0  0
 26 27  1  0  0  0  0
 26 28  1  0  0  0  0
 28 29  1  0  0  0  0
 28 58  1  0  0  0  0
 28 59  1  0  0  0  0
 29 30  1  0  0  0  0
 29 60  1  0  0  0  0
 29 61  1  0  0  0  0
 30 31  1  0  0  0  0
 31 32  1  0  0  0  0
 31 62  1  0  0  0  0
 31 63  1  0  0  0  0
 32 64  1  0  0  0  0
 32 65  1  0  0  0  0
 32 66  1  0  0  0  0
M  CHG  1  17   1
M  END
$$$$
CHEMBL1094489
  -OEChem-07121202283D

 68 71  0     0  0  0  0  0  0999 V2000
    0.6355    0.0277   -0.5808 C   0  0  0  0  0  0  0  0  0  0  0  0
    0.1607   -1.4129   -0.7808 C   0  0  0  0  0  0  0  0  0  0  0  0
   -1.3171   -1.4986   -0.4983 C   0  0  0  0  0  0  0  0  0  0  0  0
   -1.8994   -1.7666    0.7589 C   0  0  0  0  0  0  0  0  0  0  0  0
   -3.2929   -1.7552    0.5745 C   0  0  0  0  0  0  0  0  0  0  0  0
   -4.1166   -1.9977    1.6827 C   0  0  0  0  0  0  0  0  0  0  0  0
   -3.5481   -2.2280    2.8601 N   0  0  0  0  0  0  0  0  0  0  0  0
   -2.2270   -2.2310    2.9969 C   0  0  0  0  0  0  0  0  0  0  0  0
   -1.4115   -2.0080    1.9834 N   0  0  0  0  0  0  0  0  0  0  0  0
   -1.6854   -2.4766    4.2488 N   0  0  0  0  0  0  0  0  0  0  0  0
   -0.2389   -2.3540    4.4758 C   0  0  0  0  0  0  0  0  0  0  0  0
   -0.0037   -1.4080    5.6575 C   0  0  0  0  0  0  0  0  0  0  0  0
   -0.7902   -1.9088    6.8711 C   0  0  0  0  0  0  0  0  0  0  0  0
   -2.2856   -1.9128    6.5458 C   0  0  0  0  0  0  0  0  0  0  0  0
   -2.5474   -2.8586    5.3755 C   0  0  0  0  0  0  0  0  0  0  0  0
   -0.5304   -0.9857    8.0633 C   0  0  0  0  0  0  0  0  0  0  0  0
   -1.1881   -1.5318    9.2579 N   0  3  0  0  0  0  0  0  0  0  0  0
   -5.4960   -1.9965    1.5520 N   0  0  0  0  0  0  0  0  0  0  0  0
   -6.2963   -2.3987    2.6173 C   0  0  0  0  0  0  0  0  0  0  0  0
   -5.8394   -2.2389    3.9215 C   0  0  0  0  0  0  0  0  0  0  0  0
   -6.6450   -2.6429    4.9707 C   0  0  0  0  0  0  0  0  0  0  0  0
   -7.8853   -3.1954    4.6793 C   0  0  0  0  0  0  0  0  0  0  0  0
   -8.2752   -3.3243    3.3613 C   0  0  0  0  0  0  0  0  0  0  0  0
   -7.4878   -2.9251    2.3806 N   0  3  0  0  0  0  0  0  0  0  0  0
   -6.1869   -2.4876    6.3980 C   0  0  0  0  0  0  0  0  0  0  0  0
   -3.5140   -1.4883   -0.7513 N   0  0  0  0  0  0  0  0  0  0  0  0
   -2.2686   -1.3318   -1.3739 N   0  0  0  0  0  0  0  0  0  0  0  0
   -4.8221   -1.3800   -1.4019 C   0  0  0  0  0  0  0  0  0  0  0  0
   -5.3819    0.0281   -1.1905 C   0  0  0  0  0  0  0  0  0  0  0  0
   -6.6579    0.1337   -1.8251 O   0  0  0  0  0  0  0  0  0  0  0  0
   -7.2713    1.4169   -1.6869 C   0  0  0  0  0  0  0  0  0  0  0  0
   -8.6245    1.4149   -2.4009 C   0  0  0  0  0  0  0  0  0  0  0  0
    1.7044    0.0896   -0.7852 H   0  0  0  0  0  0  0  0  0  0  0  0
    0.0965    0.6858   -1.2623 H   0  0  0  0  0  0  0  0  0  0  0  0
    0.4439    0.3339    0.4476 H   0  0  0  0  0  0  0  0  0  0  0  0
    0.3523   -1.7192   -1.8092 H   0  0  0  0  0  0  0  0  0  0  0  0
    0.6996   -2.0711   -0.0993 H   0  0  0  0  0  0  0  0  0  0  0  0
    0.1796   -3.3343    4.7036 H   0  0  0  0  0  0  0  0  0  0  0  0
    0.2380   -1.9492    3.5832 H   0  0  0  0  0  0  0  0  0  0  0  0
    1.0592   -1.3833    5.8978 H   0  0  0  0  0  0  0  0  0  0  0  0
   -0.3410   -0.4056    5.3938 H   0  0  0  0  0  0  0  0  0  0  0  0
   -0.4699   -2.9208    7.1191 H   0  0  0  0  0  0  0  0  0  0  0  0
   -2.8469   -2.2473    7.4182 H   0  0  0  0  0  0  0  0  0  0  0  0
   -2.6014   -0.9056    6.2737 H   0  0  0  0  0  0  0  0  0  0  0  0
   -3.5931   -2.7866    5.0764 H   0  0  0  0  0  0  0  0  0  0  0  0
   -2.3214   -3.8810    5.6784 H   0  0  0  0  0  0  0  0  0  0  0  0
    0.5428   -0.9140    8.2401 H   0  0  0  0  0  0  0  0  0  0  0  0
   -0.9304    0.0054    7.8493 H   0  0  0  0  0  0  0  0  0  0  0  0
   -2.1815   -1.5982    9.0942 H   0  0  0  0  0  0  0  0  0  0  0  0
   -0.8179   -2.4493    9.4560 H   0  0  0  0  0  0  0  0  0  0  0  0
   -5.9039   -1.7154    0.7181 H   0  0  0  0  0  0  0  0  0  0  0  0
   -4.8687   -1.8056    4.1121 H   0  0  0  0  0  0  0  0  0  0  0  0
   -8.5381   -3.5212    5.4756 H   0  0  0  0  0  0  0  0  0  0  0  0
   -9.2389   -3.7534    3.1300 H   0  0  0  0  0  0  0  0  0  0  0  0
   -6.5008   -1.5148    6.7765 H   0  0  0  0  0  0  0  0  0  0  0  0
   -6.6284   -3.2749    7.0090 H   0  0  0  0  0  0  0  0  0  0  0  0
   -5.1002   -2.5607    6.4408 H   0  0  0  0  0  0  0  0  0  0  0  0
   -4.7139   -1.5715   -2.4695 H   0  0  0  0  0  0  0  0  0  0  0  0
   -5.5048   -2.1112   -0.9690 H   0  0  0  0  0  0  0  0  0  0  0  0
   -5.4901    0.2195   -0.1229 H   0  0  0  0  0  0  0  0  0  0  0  0
   -4.6992    0.7593   -1.6233 H   0  0  0  0  0  0  0  0  0  0  0  0
   -7.4188    1.6372   -0.6296 H   0  0  0  0  0  0  0  0  0  0  0  0
   -6.6278    2.1769   -2.1300 H   0  0  0  0  0  0  0  0  0  0  0  0
   -8.4771    1.1946   -3.4582 H   0  0  0  0  0  0  0  0  0  0  0  0
   -9.2680    0.6549   -1.9577 H   0  0  0  0  0  0  0  0  0  0  0  0
   -9.0924    2.3936   -2.2955 H   0  0  0  0  0  0  0  0  0  0  0  0
   -1.0168   -0.9230   10.0441 H   0  0  0  0  0  0  0  0  0  0  0  0
   -7.7877   -3.0234    1.4633 H   0  0  0  0  0  0  0  0  0  0  0  0
  1  2  1  0  0  0  0
  1 33  1  0  0  0  0
  1 34  1  0  0  0  0
  1 35  1  0  0  0  0
  2  3  1  0  0  0  0
  2 36  1  0  0  0  0
  2 37  1  0  0  0  0
  3 27  2  0  0  0  0
  3  4  1  0  0  0  0
  4  9  2  0  0  0  0
  4  5  1  0  0  0  0
  5  6  2  0  0  0  0
  5 26  1  0  0  0  0
  6  7  1  0  0  0  0
  6 18  1  0  0  0  0
  7  8  2  0  0  0  0
  8  9  1  0  0  0  0
  8 10  1  0  0  0  0
 10 15  1  0  0  0  0
 10 11  1  0  0  0  0
 11 12  1  0  0  0  0
 11 38  1  0  0  0  0
 11 39  1  0  0  0  0
 12 13  1  0  0  0  0
 12 40  1  0  0  0  0
 12 41  1  0  0  0  0
 13 14  1  0  0  0  0
 13 16  1  0  0  0  0
 13 42  1  0  0  0  0
 14 15  1  0  0  0  0
 14 43  1  0  0  0  0
 14 44  1  0  0  0  0
 15 45  1  0  0  0  0
 15 46  1  0  0  0  0
 16 17  1  0  0  0  0
 16 47  1  0  0  0  0
 16 48  1  0  0  0  0
 17 49  1  0  0  0  0
 17 50  1  0  0  0  0
 17 67  1  0  0  0  0
 18 19  1  0  0  0  0
 18 51  1  0  0  0  0
 19 24  2  0  0  0  0
 19 20  1  0  0  0  0
 20 21  2  0  0  0  0
 20 52  1  0  0  0  0
 21 22  1  0  0  0  0
 21 25  1  0  0  0  0
 22 23  2  0  0  0  0
 22 53  1  0  0  0  0
 23 24  1  0  0  0  0
 23 54  1  0  0  0  0
 24 68  1  0  0  0  0
 25 55  1  0  0  0  0
 25 56  1  0  0  0  0
 25 57  1  0  0  0  0
 26 27  1  0  0  0  0
 26 28  1  0  0  0  0
 28 29  1  0  0  0  0
 28 58  1  0  0  0  0
 28 59  1  0  0  0  0
 29 30  1  0  0  0  0
 29 60  1  0  0  0  0
 29 61  1  0  0  0  0
 30 31  1  0  0  0  0
 31 32  1  0  0  0  0
 31 62  1  0  0  0  0
 31 63  1  0  0  0  0
 32 64  1  0  0  0  0
 32 65  1  0  0  0  0
 32 66  1  0  0  0  0
M  CHG  2  17   1  24   1
M  END
$$$$
CHEMBL136498
  -OEChem-07121202283D

 55 61  0     1  0  0  0  0  0999 V2000
   -0.0165    1.3628    0.0095 C   0  0  0  0  0  0  0  0  0  0  0  0
    1.1698    2.0838    0.0021 C   0  0  0  0  0  0  0  0  0  0  0  0
    2.3862    1.4376   -0.0135 C   0  0  0  0  0  0  0  0  0  0  0  0
    2.4284    0.0458   -0.0214 C   0  0  0  0  0  0  0  0  0  0  0  0
    1.2231   -0.6777   -0.0133 C   0  0  0  0  0  0  0  0  0  0  0  0
    0.0021   -0.0041    0.0020 C   0  0  0  0  0  0  0  0  0  0  0  0
    1.2934   -2.1480   -0.0219 C   0  0  0  0  0  0  0  0  0  0  0  0
    2.5744   -2.7535   -0.0380 C   0  0  0  0  0  0  0  0  0  0  0  0
    3.6874   -1.9921   -0.0449 C   0  0  0  0  0  0  0  0  0  0  0  0
    3.6240   -0.6315   -0.0374 N   0  0  0  0  0  0  0  0  0  0  0  0
    4.9010   -2.8944   -0.0614 C   0  0  2  0  0  0  0  0  0  0  0  0
    4.4244   -4.2808   -0.0638 N   0  0  0  0  0  0  0  0  0  0  0  0
    2.9595   -4.2121   -0.0492 C   0  0  0  0  0  0  0  0  0  0  0  0
    5.1813   -5.3958   -0.0778 C   0  0  0  0  0  0  0  0  0  0  0  0
    6.3948   -5.3073   -0.0901 O   0  0  0  0  0  0  0  0  0  0  0  0
    4.5416   -6.7174   -0.0782 C   0  0  0  0  0  0  0  0  0  0  0  0
    5.2011   -7.9055   -0.0861 C   0  0  0  0  0  0  0  0  0  0  0  0
    4.1701   -8.9415   -0.0832 C   0  0  0  0  0  0  0  0  0  0  0  0
    4.1956  -10.3393   -0.0886 C   0  0  0  0  0  0  0  0  0  0  0  0
    3.0237  -11.0387   -0.0844 C   0  0  0  0  0  0  0  0  0  0  0  0
    1.8021  -10.3675   -0.0752 C   0  0  0  0  0  0  0  0  0  0  0  0
    1.7580   -8.9847   -0.0698 C   0  0  0  0  0  0  0  0  0  0  0  0
    2.9401   -8.2560   -0.0734 C   0  0  0  0  0  0  0  0  0  0  0  0
    3.2094   -6.9358   -0.0649 O   0  0  0  0  0  0  0  0  0  0  0  0
    0.6444  -11.0776   -0.0721 O   0  0  0  0  0  0  0  0  0  0  0  0
    5.7400   -2.6447    1.1653 C   0  0  0  0  0  0  0  0  0  0  0  0
    5.3882   -3.2158    2.3746 C   0  0  0  0  0  0  0  0  0  0  0  0
    6.1550   -2.9939    3.4994 C   0  0  0  0  0  0  0  0  0  0  0  0
    7.2913   -2.1917    3.4267 C   0  0  0  0  0  0  0  0  0  0  0  0
    7.6303   -1.6177    2.2084 C   0  0  0  0  0  0  0  0  0  0  0  0
    6.8682   -1.8480    1.0843 C   0  0  0  0  0  0  0  0  0  0  0  0
    8.8804   -0.7910    2.4391 C   0  0  0  0  0  0  0  0  0  0  0  0
    8.9149   -0.6868    3.9822 C   0  0  0  0  0  0  0  0  0  0  0  0
    8.1857   -1.8547    4.3962 O   0  0  0  0  0  0  0  0  0  0  0  0
    0.2786   -2.8253   -0.0151 O   0  0  0  0  0  0  0  0  0  0  0  0
   -0.9613    1.8858    0.0259 H   0  0  0  0  0  0  0  0  0  0  0  0
    1.1386    3.1633    0.0082 H   0  0  0  0  0  0  0  0  0  0  0  0
    3.3032    2.0080   -0.0199 H   0  0  0  0  0  0  0  0  0  0  0  0
   -0.9242   -0.5595    0.0083 H   0  0  0  0  0  0  0  0  0  0  0  0
    5.4905   -2.7047   -0.9584 H   0  0  0  0  0  0  0  0  0  0  0  0
    2.5749   -4.7034    0.8446 H   0  0  0  0  0  0  0  0  0  0  0  0
    2.5575   -4.6942   -0.9403 H   0  0  0  0  0  0  0  0  0  0  0  0
    6.2708   -8.0542   -0.0935 H   0  0  0  0  0  0  0  0  0  0  0  0
    5.1396  -10.8639   -0.0964 H   0  0  0  0  0  0  0  0  0  0  0  0
    3.0430  -12.1185   -0.0886 H   0  0  0  0  0  0  0  0  0  0  0  0
    0.8067   -8.4733   -0.0630 H   0  0  0  0  0  0  0  0  0  0  0  0
    0.3138  -11.2869    0.8122 H   0  0  0  0  0  0  0  0  0  0  0  0
    4.5081   -3.8385    2.4387 H   0  0  0  0  0  0  0  0  0  0  0  0
    5.8735   -3.4442    4.4399 H   0  0  0  0  0  0  0  0  0  0  0  0
    7.1492   -1.4038    0.1408 H   0  0  0  0  0  0  0  0  0  0  0  0
    9.7638   -1.3076    2.0638 H   0  0  0  0  0  0  0  0  0  0  0  0
    8.7849    0.1949    1.9842 H   0  0  0  0  0  0  0  0  0  0  0  0
    9.9407   -0.7219    4.3489 H   0  0  0  0  0  0  0  0  0  0  0  0
    8.4140    0.2207    4.3193 H   0  0  0  0  0  0  0  0  0  0  0  0
    4.4504   -0.1236   -0.0431 H   0  0  0  0  0  0  0  0  0  0  0  0
  1  6  2  0  0  0  0
  1  2  1  0  0  0  0
  1 36  1  0  0  0  0
  2  3  2  0  0  0  0
  2 37  1  0  0  0  0
  3  4  1  0  0  0  0
  3 38  1  0  0  0  0
  4 10  1  0  0  0  0
  4  5  2  0  0  0  0
  5  6  1  0  0  0  0
  5  7  1  0  0  0  0
  6 39  1  0  0  0  0
  7  8  1  0  0  0  0
  7 35  2  0  0  0  0
  8 13  1  0  0  0  0
  8  9  2  0  0  0  0
  9 10  1  0  0  0  0
  9 11  1  0  0  0  0
 10 55  1  0  0  0  0
 11 12  1  0  0  0  0
 11 26  1  0  0  0  0
 11 40  1  0  0  0  0
 12 13  1  0  0  0  0
 12 14  1  0  0  0  0
 13 41  1  0  0  0  0
 13 42  1  0  0  0  0
 14 15  2  0  0  0  0
 14 16  1  0  0  0  0
 16 24  1  0  0  0  0
 16 17  2  0  0  0  0
 17 18  1  0  0  0  0
 17 43  1  0  0  0  0
 18 23  2  0  0  0  0
 18 19  1  0  0  0  0
 19 20  2  0  0  0  0
 19 44  1  0  0  0  0
 20 21  1  0  0  0  0
 20 45  1  0  0  0  0
 21 22  2  0  0  0  0
 21 25  1  0  0  0  0
 22 23  1  0  0  0  0
 22 46  1  0  0  0  0
 23 24  1  0  0  0  0
 25 47  1  0  0  0  0
 26 31  2  0  0  0  0
 26 27  1  0  0  0  0
 27 28  2  0  0  0  0
 27 48  1  0  0  0  0
 28 29  1  0  0  0  0
 28 49  1  0  0  0  0
 29 34  1  0  0  0  0
 29 30  2  0  0  0  0
 30 31  1  0  0  0  0
 30 32  1  0  0  0  0
 31 50  1  0  0  0  0
 32 33  1  0  0  0  0
 32 51  1  0  0  0  0
 32 52  1  0  0  0  0
 33 34  1  0  0  0  0
 33 53  1  0  0  0  0
 33 54  1  0  0  0  0
M  END
$$$$
CHEMBL136498
  -OEChem-07121202283D

 55 61  0     1  0  0  0  0  0999 V2000
   -0.0165    1.3628    0.0095 C   0  0  0  0  0  0  0  0  0  0  0  0
    1.1698    2.0838    0.0021 C   0  0  0  0  0  0  0  0  0  0  0  0
    2.3862    1.4376   -0.0135 C   0  0  0  0  0  0  0  0  0  0  0  0
    2.4284    0.0458   -0.0214 C   0  0  0  0  0  0  0  0  0  0  0  0
    1.2231   -0.6777   -0.0133 C   0  0  0  0  0  0  0  0  0  0  0  0
    0.0021   -0.0041    0.0020 C   0  0  0  0  0  0  0  0  0  0  0  0
    1.2934   -2.1480   -0.0219 C   0  0  0  0  0  0  0  0  0  0  0  0
    2.5744   -2.7535   -0.0380 C   0  0  0  0  0  0  0  0  0  0  0  0
    3.6874   -1.9921   -0.0449 C   0  0  0  0  0  0  0  0  0  0  0  0
    3.6240   -0.6315   -0.0374 N   0  0  0  0  0  0  0  0  0  0  0  0
    4.9010   -2.8944   -0.0614 C   0  0  1  0  0  0  0  0  0  0  0  0
    4.4244   -4.2808   -0.0638 N   0  0  0  0  0  0  0  0  0  0  0  0
    2.9595   -4.2121   -0.0492 C   0  0  0  0  0  0  0  0  0  0  0  0
    5.1813   -5.3958   -0.0778 C   0  0  0  0  0  0  0  0  0  0  0  0
    6.3948   -5.3073   -0.0901 O   0  0  0  0  0  0  0  0  0  0  0  0
    4.5416   -6.7174   -0.0782 C   0  0  0  0  0  0  0  0  0  0  0  0
    5.2011   -7.9055   -0.0861 C   0  0  0  0  0  0  0  0  0  0  0  0
    4.1701   -8.9415   -0.0832 C   0  0  0  0  0  0  0  0  0  0  0  0
    4.1956  -10.3393   -0.0886 C   0  0  0  0  0  0  0  0  0  0  0  0
    3.0237  -11.0387   -0.0844 C   0  0  0  0  0  0  0  0  0  0  0  0
    1.8021  -10.3675   -0.0752 C   0  0  0  0  0  0  0  0  0  0  0  0
    1.7580   -8.9847   -0.0698 C   0  0  0  0  0  0  0  0  0  0  0  0
    2.9401   -8.2560   -0.0734 C   0  0  0  0  0  0  0  0  0  0  0  0
    3.2094   -6.9358   -0.0649 O   0  0  0  0  0  0  0  0  0  0  0  0
    0.6444  -11.0776   -0.0721 O   0  0  0  0  0  0  0  0  0  0  0  0
    5.7160   -2.6321   -1.3016 C   0  0  0  0  0  0  0  0  0  0  0  0
    5.3341   -3.1814   -2.5118 C   0  0  0  0  0  0  0  0  0  0  0  0
    6.0741   -2.9410   -3.6508 C   0  0  0  0  0  0  0  0  0  0  0  0
    7.2135   -2.1422   -3.5914 C   0  0  0  0  0  0  0  0  0  0  0  0
    7.5911   -1.6022   -2.3688 C   0  0  0  0  0  0  0  0  0  0  0  0
    6.8456   -1.8361   -1.2344 C   0  0  0  0  0  0  0  0  0  0  0  0
    8.8629   -0.8111   -2.6062 C   0  0  0  0  0  0  0  0  0  0  0  0
    9.3082   -1.3300   -3.9939 C   0  0  0  0  0  0  0  0  0  0  0  0
    8.0716   -1.7702   -4.5806 O   0  0  0  0  0  0  0  0  0  0  0  0
    0.2786   -2.8253   -0.0151 O   0  0  0  0  0  0  0  0  0  0  0  0
   -0.9613    1.8858    0.0259 H   0  0  0  0  0  0  0  0  0  0  0  0
    1.1386    3.1633    0.0082 H   0  0  0  0  0  0  0  0  0  0  0  0
    3.3032    2.0080   -0.0199 H   0  0  0  0  0  0  0  0  0  0  0  0
   -0.9242   -0.5595    0.0083 H   0  0  0  0  0  0  0  0  0  0  0  0
    5.5079   -2.7138    0.8259 H   0  0  0  0  0  0  0  0  0  0  0  0
    2.5749   -4.7034    0.8446 H   0  0  0  0  0  0  0  0  0  0  0  0
    2.5575   -4.6942   -0.9403 H   0  0  0  0  0  0  0  0  0  0  0  0
    6.2708   -8.0542   -0.0935 H   0  0  0  0  0  0  0  0  0  0  0  0
    5.1396  -10.8639   -0.0964 H   0  0  0  0  0  0  0  0  0  0  0  0
    3.0430  -12.1185   -0.0886 H   0  0  0  0  0  0  0  0  0  0  0  0
    0.8067   -8.4733   -0.0630 H   0  0  0  0  0  0  0  0  0  0  0  0
    0.3138  -11.2869    0.8122 H   0  0  0  0  0  0  0  0  0  0  0  0
    4.4520   -3.8022   -2.5654 H   0  0  0  0  0  0  0  0  0  0  0  0
    5.7686   -3.3734   -4.5921 H   0  0  0  0  0  0  0  0  0  0  0  0
    7.1449   -1.4014   -0.2922 H   0  0  0  0  0  0  0  0  0  0  0  0
    8.6559    0.2586   -2.6383 H   0  0  0  0  0  0  0  0  0  0  0  0
    9.6108   -1.0390   -1.8468 H   0  0  0  0  0  0  0  0  0  0  0  0
    9.7505   -0.5265   -4.5829 H   0  0  0  0  0  0  0  0  0  0  0  0
   10.0042   -2.1623   -3.8899 H   0  0  0  0  0  0  0  0  0  0  0  0
    4.4504   -0.1236   -0.0431 H   0  0  0  0  0  0  0  0  0  0  0  0
  1  6  2  0  0  0  0
  1  2  1  0  0  0  0
  1 36  1  0  0  0  0
  2  3  2  0  0  0  0
  2 37  1  0  0  0  0
  3  4  1  0  0  0  0
  3 38  1  0  0  0  0
  4 10  1  0  0  0  0
  4  5  2  0  0  0  0
  5  6  1  0  0  0  0
  5  7  1  0  0  0  0
  6 39  1  0  0  0  0
  7  8  1  0  0  0  0
  7 35  2  0  0  0  0
  8 13  1  0  0  0  0
  8  9  2  0  0  0  0
  9 10  1  0  0  0  0
  9 11  1  0  0  0  0
 10 55  1  0  0  0  0
 11 12  1  0  0  0  0
 11 26  1  0  0  0  0
 11 40  1  0  0  0  0
 12 13  1  0  0  0  0
 12 14  1  0  0  0  0
 13 41  1  0  0  0  0
 13 42  1  0  0  0  0
 14 15  2  0  0  0  0
 14 16  1  0  0  0  0
 16 24  1  0  0  0  0
 16 17  2  0  0  0  0
 17 18  1  0  0  0  0
 17 43  1  0  0  0  0
 18 23  2  0  0  0  0
 18 19  1  0  0  0  0
 19 20  2  0  0  0  0
 19 44  1  0  0  0  0
 20 21  1  0  0  0  0
 20 45  1  0  0  0  0
 21 22  2  0  0  0  0
 21 25  1  0  0  0  0
 22 23  1  0  0  0  0
 22 46  1  0  0  0  0
 23 24  1  0  0  0  0
 25 47  1  0  0  0  0
 26 31  2  0  0  0  0
 26 27  1  0  0  0  0
 27 28  2  0  0  0  0
 27 48  1  0  0  0  0
 28 29  1  0  0  0  0
 28 49  1  0  0  0  0
 29 34  1  0  0  0  0
 29 30  2  0  0  0  0
 30 31  1  0  0  0  0
 30 32  1  0  0  0  0
 31 50  1  0  0  0  0
 32 33  1  0  0  0  0
 32 51  1  0  0  0  0
 32 52  1  0  0  0  0
 33 34  1  0  0  0  0
 33 53  1  0  0  0  0
 33 54  1  0  0  0  0
M  END
$$$$
CHEMBL183696
  -OEChem-07121202283D

 66 70  0     0  0  0  0  0  0999 V2000
   -0.0187    1.5258    0.0104 C   0  0  0  0  0  0  0  0  0  0  0  0
    0.0021   -0.0041    0.0020 C   0  0  0  0  0  0  0  0  0  0  0  0
    0.6709   -0.4649   -1.1737 O   0  0  0  0  0  0  0  0  0  0  0  0
    0.7767   -1.8089   -1.3360 C   0  0  0  0  0  0  0  0  0  0  0  0
    0.2435   -2.6683   -0.3878 C   0  0  0  0  0  0  0  0  0  0  0  0
    0.3523   -4.0354   -0.5540 C   0  0  0  0  0  0  0  0  0  0  0  0
    0.9923   -4.5555   -1.6657 C   0  0  0  0  0  0  0  0  0  0  0  0
    1.5271   -3.7124   -2.6176 C   0  0  0  0  0  0  0  0  0  0  0  0
    1.4188   -2.3314   -2.4632 C   0  0  0  0  0  0  0  0  0  0  0  0
    1.9861   -1.4211   -3.4858 C   0  0  0  0  0  0  0  0  0  0  0  0
    2.5838   -1.9413   -4.5453 N   0  0  0  0  0  0  0  0  0  0  0  0
    3.1043   -1.1500   -5.4829 C   0  0  0  0  0  0  0  0  0  0  0  0
    3.0108    0.2417   -5.3328 C   0  0  0  0  0  0  0  0  0  0  0  0
    2.3695    0.7464   -4.1945 C   0  0  0  0  0  0  0  0  0  0  0  0
    1.8734   -0.1078   -3.3117 N   0  0  0  0  0  0  0  0  0  0  0  0
    2.2531    2.0828   -4.0030 O   0  5  0  0  0  0  0  0  0  0  0  0
    3.6068    0.7998   -6.4024 O   0  0  0  0  0  0  0  0  0  0  0  0
    4.0908   -0.2211   -7.2531 N   0  0  0  0  0  0  0  0  0  0  0  0
    3.8130   -1.3821   -6.7439 C   0  0  0  0  0  0  0  0  0  0  0  0
    4.1561   -2.7228   -7.3404 C   0  0  0  0  0  0  0  0  0  0  0  0
    5.6788   -2.8275   -7.5646 C   0  0  0  0  0  0  0  0  0  0  0  0
    5.8141   -3.6128   -8.8927 C   0  0  0  0  0  0  0  0  0  0  0  0
    4.6424   -3.0567   -9.7395 C   0  0  0  0  0  0  0  0  0  0  0  0
    3.4971   -2.8686   -8.7233 C   0  0  0  0  0  0  0  0  0  0  0  0
    1.1247   -6.3011   -1.8655 S   0  0  0  0  0  0  0  0  0  0  0  0
    2.2438   -6.5294   -2.7109 O   0  0  0  0  0  0  0  0  0  0  0  0
    1.0234   -6.8675   -0.5662 O   0  0  0  0  0  0  0  0  0  0  0  0
   -0.2124   -6.8007   -2.7052 N   0  0  0  0  0  0  0  0  0  0  0  0
   -1.4424   -7.1940   -2.0012 C   0  0  0  0  0  0  0  0  0  0  0  0
   -2.6202   -6.4296   -2.6150 C   0  0  0  0  0  0  0  0  0  0  0  0
   -2.6386   -6.6489   -4.0674 N   0  0  0  0  0  0  0  0  0  0  0  0
   -1.4280   -6.1115   -4.7028 C   0  0  0  0  0  0  0  0  0  0  0  0
   -0.2034   -6.8571   -4.1748 C   0  0  0  0  0  0  0  0  0  0  0  0
   -3.8488   -6.0754   -4.6712 C   0  0  0  0  0  0  0  0  0  0  0  0
   -3.9587   -6.5336   -6.1268 C   0  0  0  0  0  0  0  0  0  0  0  0
   -4.1502   -7.9491   -6.1675 O   0  0  0  0  0  0  0  0  0  0  0  0
    1.0039    1.9031    0.0027 H   0  0  0  0  0  0  0  0  0  0  0  0
   -0.5459    1.8868   -0.8726 H   0  0  0  0  0  0  0  0  0  0  0  0
   -0.5289    1.8773    0.9072 H   0  0  0  0  0  0  0  0  0  0  0  0
    0.5293   -0.3651    0.8851 H   0  0  0  0  0  0  0  0  0  0  0  0
   -1.0205   -0.3814    0.0098 H   0  0  0  0  0  0  0  0  0  0  0  0
   -0.2570   -2.2687    0.4818 H   0  0  0  0  0  0  0  0  0  0  0  0
   -0.0638   -4.7015    0.1873 H   0  0  0  0  0  0  0  0  0  0  0  0
    2.0261   -4.1220   -3.4835 H   0  0  0  0  0  0  0  0  0  0  0  0
    3.8193   -3.5221   -6.6802 H   0  0  0  0  0  0  0  0  0  0  0  0
    6.1191   -1.8351   -7.6616 H   0  0  0  0  0  0  0  0  0  0  0  0
    6.1478   -3.3758   -6.7477 H   0  0  0  0  0  0  0  0  0  0  0  0
    6.7706   -3.4013   -9.3708 H   0  0  0  0  0  0  0  0  0  0  0  0
    5.6942   -4.6828   -8.7228 H   0  0  0  0  0  0  0  0  0  0  0  0
    4.9154   -2.1014  -10.1878 H   0  0  0  0  0  0  0  0  0  0  0  0
    4.3552   -3.7724  -10.5098 H   0  0  0  0  0  0  0  0  0  0  0  0
    2.8413   -3.7392   -8.7345 H   0  0  0  0  0  0  0  0  0  0  0  0
    2.9292   -1.9696   -8.9629 H   0  0  0  0  0  0  0  0  0  0  0  0
   -1.6026   -8.2661   -2.1150 H   0  0  0  0  0  0  0  0  0  0  0  0
   -1.3550   -6.9442   -0.9438 H   0  0  0  0  0  0  0  0  0  0  0  0
   -3.5531   -6.7893   -2.1810 H   0  0  0  0  0  0  0  0  0  0  0  0
   -2.5096   -5.3649   -2.4093 H   0  0  0  0  0  0  0  0  0  0  0  0
   -1.4963   -6.2406   -5.7830 H   0  0  0  0  0  0  0  0  0  0  0  0
   -1.3340   -5.0513   -4.4680 H   0  0  0  0  0  0  0  0  0  0  0  0
    0.7029   -6.3847   -4.5539 H   0  0  0  0  0  0  0  0  0  0  0  0
   -0.2422   -7.8963   -4.5016 H   0  0  0  0  0  0  0  0  0  0  0  0
   -4.7253   -6.4115   -4.1173 H   0  0  0  0  0  0  0  0  0  0  0  0
   -3.7919   -4.9875   -4.6360 H   0  0  0  0  0  0  0  0  0  0  0  0
   -4.8064   -6.0385   -6.6005 H   0  0  0  0  0  0  0  0  0  0  0  0
   -3.0433   -6.2753   -6.6591 H   0  0  0  0  0  0  0  0  0  0  0  0
   -4.2284   -8.3099   -7.0613 H   0  0  0  0  0  0  0  0  0  0  0  0
  1  2  1  0  0  0  0
  1 37  1  0  0  0  0
  1 38  1  0  0  0  0
  1 39  1  0  0  0  0
  2  3  1  0  0  0  0
  2 40  1  0  0  0  0
  2 41  1  0  0  0  0
  3  4  1  0  0  0  0
  4  9  2  0  0  0  0
  4  5  1  0  0  0  0
  5  6  2  0  0  0  0
  5 42  1  0  0  0  0
  6  7  1  0  0  0  0
  6 43  1  0  0  0  0
  7  8  2  0  0  0  0
  7 25  1  0  0  0  0
  8  9  1  0  0  0  0
  8 44  1  0  0  0  0
  9 10  1  0  0  0  0
 10 15  2  0  0  0  0
 10 11  1  0  0  0  0
 11 12  2  0  0  0  0
 12 19  1  0  0  0  0
 12 13  1  0  0  0  0
 13 14  2  0  0  0  0
 13 17  1  0  0  0  0
 14 15  1  0  0  0  0
 14 16  1  0  0  0  0
 17 18  1  0  0  0  0
 18 19  2  0  0  0  0
 19 20  1  0  0  0  0
 20 24  1  0  0  0  0
 20 21  1  0  0  0  0
 20 45  1  0  0  0  0
 21 22  1  0  0  0  0
 21 46  1  0  0  0  0
 21 47  1  0  0  0  0
 22 23  1  0  0  0  0
 22 48  1  0  0  0  0
 22 49  1  0  0  0  0
 23 24  1  0  0  0  0
 23 50  1  0  0  0  0
 23 51  1  0  0  0  0
 24 52  1  0  0  0  0
 24 53  1  0  0  0  0
 25 26  2  0  0  0  0
 25 27  2  0  0  0  0
 25 28  1  0  0  0  0
 28 33  1  0  0  0  0
 28 29  1  0  0  0  0
 29 30  1  0  0  0  0
 29 54  1  0  0  0  0
 29 55  1  0  0  0  0
 30 31  1  0  0  0  0
 30 56  1  0  0  0  0
 30 57  1  0  0  0  0
 31 32  1  0  0  0  0
 31 34  1  0  0  0  0
 32 33  1  0  0  0  0
 32 58  1  0  0  0  0
 32 59  1  0  0  0  0
 33 60  1  0  0  0  0
 33 61  1  0  0  0  0
 34 35  1  0  0  0  0
 34 62  1  0  0  0  0
 34 63  1  0  0  0  0
 35 36  1  0  0  0  0
 35 64  1  0  0  0  0
 35 65  1  0  0  0  0
 36 66  1  0  0  0  0
M  CHG  1  16  -1
M  END
$$$$
CHEMBL560545
  -OEChem-07121202283D

 57 61  0     0  0  0  0  0  0999 V2000
   -0.0167    1.3776    0.0096 C   0  0  0  0  0  0  0  0  0  0  0  0
    1.1849    2.0698    0.0019 C   0  0  0  0  0  0  0  0  0  0  0  0
    2.3651    1.3426   -0.0133 C   0  0  0  0  0  0  0  0  0  0  0  0
    2.3054   -0.0383   -0.0202 C   0  0  0  0  0  0  0  0  0  0  0  0
    1.1443   -0.6632   -0.0129 N   0  0  0  0  0  0  0  0  0  0  0  0
    0.0021   -0.0041    0.0020 C   0  0  0  0  0  0  0  0  0  0  0  0
    3.6964    2.0488   -0.0227 C   0  0  0  0  0  0  0  0  0  0  0  0
    4.1412    2.2707    1.3554 N   0  0  0  0  0  0  0  0  0  0  0  0
    3.7908    3.4258    2.0254 C   0  0  0  0  0  0  0  0  0  0  0  0
    4.2243    3.6268    3.3499 C   0  0  0  0  0  0  0  0  0  0  0  0
    3.8577    4.8087    4.0160 C   0  0  0  0  0  0  0  0  0  0  0  0
    3.0898    5.7229    3.3484 C   0  0  0  0  0  0  0  0  0  0  0  0
    2.6931    5.4616    2.0341 C   0  0  0  0  0  0  0  0  0  0  0  0
    3.0484    4.3414    1.4209 N   0  0  0  0  0  0  0  0  0  0  0  0
    1.8609    6.4536    1.3138 C   0  0  0  0  0  0  0  0  0  0  0  0
    1.4838    7.6394    1.9437 C   0  0  0  0  0  0  0  0  0  0  0  0
    0.7096    8.5601    1.2690 C   0  0  0  0  0  0  0  0  0  0  0  0
    0.3059    8.3081   -0.0327 C   0  0  0  0  0  0  0  0  0  0  0  0
    0.6778    7.1310   -0.6626 C   0  0  0  0  0  0  0  0  0  0  0  0
    1.4571    6.2071    0.0019 C   0  0  0  0  0  0  0  0  0  0  0  0
   -0.4528    9.2126   -0.6895 F   0  0  0  0  0  0  0  0  0  0  0  0
    4.9803    2.7053    3.9777 N   0  0  0  0  0  0  0  0  0  0  0  0
    5.3317    1.5982    3.3730 C   0  0  0  0  0  0  0  0  0  0  0  0
    4.8944    1.3455    1.9878 C   0  0  0  0  0  0  0  0  0  0  0  0
    5.2120    0.3170    1.4197 O   0  0  0  0  0  0  0  0  0  0  0  0
    6.1087    0.6640    4.0353 N   0  0  0  0  0  0  0  0  0  0  0  0
    6.5385    0.9134    5.4135 C   0  0  0  0  0  0  0  0  0  0  0  0
    7.3791   -0.2660    5.9069 C   0  0  0  0  0  0  0  0  0  0  0  0
    6.5041   -1.5207    5.9872 C   0  0  0  0  0  0  0  0  0  0  0  0
    7.3326   -2.6756    6.5560 C   0  0  0  0  0  0  0  0  0  0  0  0
    7.8431   -2.3072    7.8389 O   0  0  0  0  0  0  0  0  0  0  0  0
    8.7062   -1.1684    7.8184 C   0  0  0  0  0  0  0  0  0  0  0  0
    7.9329    0.0470    7.3004 C   0  0  0  0  0  0  0  0  0  0  0  0
   -0.9552    1.9117    0.0259 H   0  0  0  0  0  0  0  0  0  0  0  0
    1.2009    3.1496    0.0072 H   0  0  0  0  0  0  0  0  0  0  0  0
    3.2203   -0.6121   -0.0320 H   0  0  0  0  0  0  0  0  0  0  0  0
   -0.9294   -0.5505    0.0083 H   0  0  0  0  0  0  0  0  0  0  0  0
    4.4293    1.4355   -0.5468 H   0  0  0  0  0  0  0  0  0  0  0  0
    3.5953    3.0079   -0.5308 H   0  0  0  0  0  0  0  0  0  0  0  0
    4.1747    4.9910    5.0322 H   0  0  0  0  0  0  0  0  0  0  0  0
    2.7918    6.6404    3.8339 H   0  0  0  0  0  0  0  0  0  0  0  0
    1.7973    7.8363    2.9583 H   0  0  0  0  0  0  0  0  0  0  0  0
    0.4171    9.4786    1.7559 H   0  0  0  0  0  0  0  0  0  0  0  0
    0.3605    6.9388   -1.6769 H   0  0  0  0  0  0  0  0  0  0  0  0
    1.7501    5.2921   -0.4914 H   0  0  0  0  0  0  0  0  0  0  0  0
    6.3687   -0.1560    3.5871 H   0  0  0  0  0  0  0  0  0  0  0  0
    7.1354    1.8248    5.4486 H   0  0  0  0  0  0  0  0  0  0  0  0
    5.6627    1.0278    6.0522 H   0  0  0  0  0  0  0  0  0  0  0  0
    8.2048   -0.4392    5.2168 H   0  0  0  0  0  0  0  0  0  0  0  0
    5.6513   -1.3290    6.6384 H   0  0  0  0  0  0  0  0  0  0  0  0
    6.1505   -1.7826    4.9900 H   0  0  0  0  0  0  0  0  0  0  0  0
    6.7033   -3.5599    6.6554 H   0  0  0  0  0  0  0  0  0  0  0  0
    8.1623   -2.8934    5.8835 H   0  0  0  0  0  0  0  0  0  0  0  0
    9.0664   -0.9671    8.8273 H   0  0  0  0  0  0  0  0  0  0  0  0
    9.5539   -1.3666    7.1624 H   0  0  0  0  0  0  0  0  0  0  0  0
    8.6011    0.9062    7.2423 H   0  0  0  0  0  0  0  0  0  0  0  0
    7.1089    0.2704    7.9781 H   0  0  0  0  0  0  0  0  0  0  0  0
  1  6  2  0  0  0  0
  1  2  1  0  0  0  0
  1 34  1  0  0  0  0
  2  3  2  0  0  0  0
  2 35  1  0  0  0  0
  3  4  1  0  0  0  0
  3  7  1  0  0  0  0
  4  5  2  0  0  0  0
  4 36  1  0  0  0  0
  5  6  1  0  0  0  0
  6 37  1  0  0  0  0
  7  8  1  0  0  0  0
  7 38  1  0  0  0  0
  7 39  1  0  0  0  0
  8 24  1  0  0  0  0
  8  9  1  0  0  0  0
  9 14  2  0  0  0  0
  9 10  1  0  0  0  0
 10 11  2  0  0  0  0
 10 22  1  0  0  0  0
 11 12  1  0  0  0  0
 11 40  1  0  0  0  0
 12 13  2  0  0  0  0
 12 41  1  0  0  0  0
 13 14  1  0  0  0  0
 13 15  1  0  0  0  0
 15 20  2  0  0  0  0
 15 16  1  0  0  0  0
 16 17  2  0  0  0  0
 16 42  1  0  0  0  0
 17 18  1  0  0  0  0
 17 43  1  0  0  0  0
 18 19  2  0  0  0  0
 18 21  1  0  0  0  0
 19 20  1  0  0  0  0
 19 44  1  0  0  0  0
 20 45  1  0  0  0  0
 22 23  2  0  0  0  0
 23 24  1  0  0  0  0
 23 26  1  0  0  0  0
 24 25  2  0  0  0  0
 26 27  1  0  0  0  0
 26 46  1  0  0  0  0
 27 28  1  0  0  0  0
 27 47  1  0  0  0  0
 27 48  1  0  0  0  0
 28 33  1  0  0  0  0
 28 29  1  0  0  0  0
 28 49  1  0  0  0  0
 29 30  1  0  0  0  0
 29 50  1  0  0  0  0
 29 51  1  0  0  0  0
 30 31  1  0  0  0  0
 30 52  1  0  0  0  0
 30 53  1  0  0  0  0
 31 32  1  0  0  0  0
 32 33  1  0  0  0  0
 32 54  1  0  0  0  0
 32 55  1  0  0  0  0
 33 56  1  0  0  0  0
 33 57  1  0  0  0  0
M  END
$$$$
CHEMBL193364
  -OEChem-07121202283D

 69 74  0     1  0  0  0  0  0999 V2000
    0.0817    1.4101   -0.2160 C   0  0  0  0  0  0  0  0  0  0  0  0
    0.0654   -0.1190   -0.1648 C   0  0  0  0  0  0  0  0  0  0  0  0
   -1.3205   -0.5911   -0.1137 N   0  0  0  0  0  0  0  0  0  0  0  0
   -1.9159   -0.7594    1.0809 C   0  0  0  0  0  0  0  0  0  0  0  0
   -1.3111   -0.5224    2.1106 O   0  0  0  0  0  0  0  0  0  0  0  0
   -3.3001   -1.2307    1.1257 C   0  0  0  0  0  0  0  0  0  0  0  0
   -3.9510   -1.4879   -0.0719 C   0  0  0  0  0  0  0  0  0  0  0  0
   -5.2039   -1.9056    0.2534 N   0  0  0  0  0  0  0  0  0  0  0  0
   -5.2999   -1.8983    1.6148 C   0  0  0  0  0  0  0  0  0  0  0  0
   -4.1727   -1.4988    2.1281 N   0  0  0  0  0  0  0  0  0  0  0  0
   -6.5228   -2.2922    2.4024 C   0  0  0  0  0  0  0  0  0  0  0  0
   -6.4076   -3.7586    2.8237 C   0  0  0  0  0  0  0  0  0  0  0  0
   -7.6807   -4.1863    3.5073 C   0  0  0  0  0  0  0  0  0  0  0  0
   -7.8139   -4.0385    4.8753 C   0  0  0  0  0  0  0  0  0  0  0  0
   -8.9816   -4.4308    5.5024 C   0  0  0  0  0  0  0  0  0  0  0  0
  -10.0164   -4.9706    4.7615 C   0  0  0  0  0  0  0  0  0  0  0  0
   -9.8835   -5.1175    3.3934 C   0  0  0  0  0  0  0  0  0  0  0  0
   -8.7174   -4.7212    2.7657 C   0  0  0  0  0  0  0  0  0  0  0  0
   -6.2587   -2.2930   -0.6867 C   0  0  0  0  0  0  0  0  0  0  0  0
   -7.1885   -1.1276   -0.9065 C   0  0  0  0  0  0  0  0  0  0  0  0
   -8.3633   -1.0348   -0.1840 C   0  0  0  0  0  0  0  0  0  0  0  0
   -9.2161    0.0342   -0.3856 C   0  0  0  0  0  0  0  0  0  0  0  0
   -8.8940    1.0106   -1.3096 C   0  0  0  0  0  0  0  0  0  0  0  0
   -7.7188    0.9183   -2.0316 C   0  0  0  0  0  0  0  0  0  0  0  0
   -6.8638   -0.1485   -1.8268 C   0  0  0  0  0  0  0  0  0  0  0  0
   -3.2900   -1.2976   -1.2667 N   0  0  0  0  0  0  0  0  0  0  0  0
   -1.9942   -0.8502   -1.2980 C   0  0  0  0  0  0  0  0  0  0  0  0
   -1.5263   -0.7209   -2.5107 N   0  3  0  0  0  0  0  0  0  0  0  0
   -2.5414   -1.0920   -3.5002 C   0  0  1  0  0  0  0  0  0  0  0  0
   -2.2015   -1.9379   -4.0975 H   0  0  0  0  0  0  0  0  0  0  0  0
   -3.7588   -1.4986   -2.6500 C   0  0  0  0  0  0  0  0  0  0  0  0
   -2.8738    0.0996   -4.4005 C   0  0  0  0  0  0  0  0  0  0  0  0
   -1.6705    0.4469   -5.2387 C   0  0  0  0  0  0  0  0  0  0  0  0
   -0.7378    1.3519   -4.7675 C   0  0  0  0  0  0  0  0  0  0  0  0
    0.3659    1.6705   -5.5364 C   0  0  0  0  0  0  0  0  0  0  0  0
    0.5372    1.0837   -6.7763 C   0  0  0  0  0  0  0  0  0  0  0  0
   -0.3950    0.1780   -7.2470 C   0  0  0  0  0  0  0  0  0  0  0  0
   -1.4965   -0.1438   -6.4763 C   0  0  0  0  0  0  0  0  0  0  0  0
    1.1129    1.7614   -0.2540 H   0  0  0  0  0  0  0  0  0  0  0  0
   -0.4508    1.7496   -1.1044 H   0  0  0  0  0  0  0  0  0  0  0  0
   -0.4053    1.8086    0.6740 H   0  0  0  0  0  0  0  0  0  0  0  0
    0.5524   -0.5175   -1.0549 H   0  0  0  0  0  0  0  0  0  0  0  0
    0.5979   -0.4585    0.7235 H   0  0  0  0  0  0  0  0  0  0  0  0
   -6.6013   -1.6643    3.2898 H   0  0  0  0  0  0  0  0  0  0  0  0
   -7.4110   -2.1605    1.7844 H   0  0  0  0  0  0  0  0  0  0  0  0
   -6.2428   -4.3780    1.9421 H   0  0  0  0  0  0  0  0  0  0  0  0
   -5.5695   -3.8744    3.5109 H   0  0  0  0  0  0  0  0  0  0  0  0
   -7.0055   -3.6168    5.4541 H   0  0  0  0  0  0  0  0  0  0  0  0
   -9.0854   -4.3160    6.5713 H   0  0  0  0  0  0  0  0  0  0  0  0
  -10.9284   -5.2778    5.2516 H   0  0  0  0  0  0  0  0  0  0  0  0
  -10.6918   -5.5395    2.8147 H   0  0  0  0  0  0  0  0  0  0  0  0
   -8.6150   -4.8326    1.6964 H   0  0  0  0  0  0  0  0  0  0  0  0
   -5.8099   -2.5841   -1.6364 H   0  0  0  0  0  0  0  0  0  0  0  0
   -6.8196   -3.1332   -0.2773 H   0  0  0  0  0  0  0  0  0  0  0  0
   -8.6149   -1.7977    0.5379 H   0  0  0  0  0  0  0  0  0  0  0  0
  -10.1343    0.1063    0.1784 H   0  0  0  0  0  0  0  0  0  0  0  0
   -9.5607    1.8454   -1.4677 H   0  0  0  0  0  0  0  0  0  0  0  0
   -7.4673    1.6810   -2.7537 H   0  0  0  0  0  0  0  0  0  0  0  0
   -5.9439   -0.2187   -2.3881 H   0  0  0  0  0  0  0  0  0  0  0  0
   -4.0250   -2.5422   -2.8177 H   0  0  0  0  0  0  0  0  0  0  0  0
   -4.6037   -0.8455   -2.8683 H   0  0  0  0  0  0  0  0  0  0  0  0
   -3.7082   -0.1591   -5.0523 H   0  0  0  0  0  0  0  0  0  0  0  0
   -3.1464    0.9561   -3.7838 H   0  0  0  0  0  0  0  0  0  0  0  0
   -0.8717    1.8104   -3.7989 H   0  0  0  0  0  0  0  0  0  0  0  0
    1.0942    2.3781   -5.1686 H   0  0  0  0  0  0  0  0  0  0  0  0
    1.3992    1.3331   -7.3773 H   0  0  0  0  0  0  0  0  0  0  0  0
   -0.2613   -0.2802   -8.2158 H   0  0  0  0  0  0  0  0  0  0  0  0
   -2.2229   -0.8542   -6.8425 H   0  0  0  0  0  0  0  0  0  0  0  0
   -0.6299   -0.4199   -2.7266 H   0  0  0  0  0  0  0  0  0  0  0  0
  1  2  1  0  0  0  0
  1 39  1  0  0  0  0
  1 40  1  0  0  0  0
  1 41  1  0  0  0  0
  2  3  1  0  0  0  0
  2 42  1  0  0  0  0
  2 43  1  0  0  0  0
  3 27  1  0  0  0  0
  3  4  1  0  0  0  0
  4  5  2  0  0  0  0
  4  6  1  0  0  0  0
  6 10  1  0  0  0  0
  6  7  2  0  0  0  0
  7  8  1  0  0  0  0
  7 26  1  0  0  0  0
  8  9  1  0  0  0  0
  8 19  1  0  0  0  0
  9 10  2  0  0  0  0
  9 11  1  0  0  0  0
 11 12  1  0  0  0  0
 11 44  1  0  0  0  0
 11 45  1  0  0  0  0
 12 13  1  0  0  0  0
 12 46  1  0  0  0  0
 12 47  1  0  0  0  0
 13 18  2  0  0  0  0
 13 14  1  0  0  0  0
 14 15  2  0  0  0  0
 14 48  1  0  0  0  0
 15 16  1  0  0  0  0
 15 49  1  0  0  0  0
 16 17  2  0  0  0  0
 16 50  1  0  0  0  0
 17 18  1  0  0  0  0
 17 51  1  0  0  0  0
 18 52  1  0  0  0  0
 19 20  1  0  0  0  0
 19 53  1  0  0  0  0
 19 54  1  0  0  0  0
 20 25  2  0  0  0  0
 20 21  1  0  0  0  0
 21 22  2  0  0  0  0
 21 55  1  0  0  0  0
 22 23  1  0  0  0  0
 22 56  1  0  0  0  0
 23 24  2  0  0  0  0
 23 57  1  0  0  0  0
 24 25  1  0  0  0  0
 24 58  1  0  0  0  0
 25 59  1  0  0  0  0
 26 31  1  0  0  0  0
 26 27  1  0  0  0  0
 27 28  2  0  0  0  0
 28 29  1  0  0  0  0
 28 69  1  0  0  0  0
 29 30  1  0  0  0  0
 29 31  1  0  0  0  0
 29 32  1  0  0  0  0
 31 60  1  0  0  0  0
 31 61  1  0  0  0  0
 32 33  1  0  0  0  0
 32 62  1  0  0  0  0
 32 63  1  0  0  0  0
 33 38  2  0  0  0  0
 33 34  1  0  0  0  0
 34 35  2  0  0  0  0
 34 64  1  0  0  0  0
 35 36  1  0  0  0  0
 35 65  1  0  0  0  0
 36 37  2  0  0  0  0
 36 66  1  0  0  0  0
 37 38  1  0  0  0  0
 37 67  1  0  0  0  0
 38 68  1  0  0  0  0
M  CHG  1  28   1
M  END
$$$$
CHEMBL336291
  -OEChem-07121202283D

 67 73  0     1  0  0  0  0  0999 V2000
   -0.0173    1.4248    0.0099 C   0  0  0  0  0  0  0  0  0  0  0  0
    0.0021   -0.0041    0.0020 O   0  0  0  0  0  0  0  0  0  0  0  0
    0.6062   -0.6075   -1.0563 C   0  0  0  0  0  0  0  0  0  0  0  0
    1.1723    0.1620   -2.0613 C   0  0  0  0  0  0  0  0  0  0  0  0
    1.7863   -0.4467   -3.1371 C   0  0  0  0  0  0  0  0  0  0  0  0
    1.8388   -1.8371   -3.2150 C   0  0  0  0  0  0  0  0  0  0  0  0
    1.2705   -2.6115   -2.2054 C   0  0  0  0  0  0  0  0  0  0  0  0
    0.6603   -1.9970   -1.1264 C   0  0  0  0  0  0  0  0  0  0  0  0
    0.1089   -2.7500   -0.1372 O   0  0  0  0  0  0  0  0  0  0  0  0
    0.2012   -4.1694   -0.2742 C   0  0  0  0  0  0  0  0  0  0  0  0
    2.4983   -2.4921   -4.3715 C   0  0  0  0  0  0  0  0  0  0  0  0
    2.5552   -3.8847   -4.4693 C   0  0  0  0  0  0  0  0  0  0  0  0
    3.1509   -4.4305   -5.5149 N   0  0  0  0  0  0  0  0  0  0  0  0
    3.6891   -3.6755   -6.4617 C   0  0  0  0  0  0  0  0  0  0  0  0
    3.6557   -2.3520   -6.4041 N   0  0  0  0  0  0  0  0  0  0  0  0
    3.0730   -1.7318   -5.3932 C   0  0  0  0  0  0  0  0  0  0  0  0
    4.3039   -4.2864   -7.5406 N   0  0  0  0  0  0  0  0  0  0  0  0
    4.4335   -5.7276   -7.7790 C   0  0  0  0  0  0  0  0  0  0  0  0
    5.1762   -5.9068   -9.0799 C   0  0  0  0  0  0  0  0  0  0  0  0
    5.5575   -7.0914   -9.7576 C   0  0  0  0  0  0  0  0  0  0  0  0
    6.2849   -6.9570  -11.0302 C   0  0  0  0  0  0  0  0  0  0  0  0
    6.6953   -8.0726  -11.7595 C   0  0  0  0  0  0  0  0  0  0  0  0
    7.3681   -7.9010  -12.9370 C   0  0  0  0  0  0  0  0  0  0  0  0
    7.6453   -6.6261  -13.4112 C   0  0  0  0  0  0  0  0  0  0  0  0
    7.2491   -5.5113  -12.7058 C   0  0  0  0  0  0  0  0  0  0  0  0
    6.5621   -5.6629  -11.5043 C   0  0  0  0  0  0  0  0  0  0  0  0
    6.1512   -4.5728  -10.7754 N   0  0  0  0  0  0  0  0  0  0  0  0
    5.4780   -4.6988   -9.5980 C   0  0  0  0  0  0  0  0  0  0  0  0
    4.9499   -3.6220   -8.6766 C   0  0  2  0  0  0  0  0  0  0  0  0
    6.0906   -2.7672   -8.1874 C   0  0  0  0  0  0  0  0  0  0  0  0
    6.8997   -3.2152   -7.1598 C   0  0  0  0  0  0  0  0  0  0  0  0
    7.9445   -2.4302   -6.7131 C   0  0  0  0  0  0  0  0  0  0  0  0
    8.1847   -1.1948   -7.2912 C   0  0  0  0  0  0  0  0  0  0  0  0
    7.3758   -0.7469   -8.3184 C   0  0  0  0  0  0  0  0  0  0  0  0
    6.3321   -1.5381   -8.7689 C   0  0  0  0  0  0  0  0  0  0  0  0
    7.8394    0.6194   -8.7763 C   0  0  0  0  0  0  0  0  0  0  0  0
    8.7369    1.1446   -7.6357 C   0  0  0  0  0  0  0  0  0  0  0  0
    9.2475   -0.1603   -6.9885 C   0  0  0  0  0  0  0  0  0  0  0  0
    5.2911   -8.1903   -9.2995 O   0  0  0  0  0  0  0  0  0  0  0  0
    1.0053    1.8021    0.0021 H   0  0  0  0  0  0  0  0  0  0  0  0
   -0.5445    1.7859   -0.8732 H   0  0  0  0  0  0  0  0  0  0  0  0
   -0.5275    1.7763    0.9067 H   0  0  0  0  0  0  0  0  0  0  0  0
    1.1325    1.2396   -2.0023 H   0  0  0  0  0  0  0  0  0  0  0  0
    2.2260    0.1547   -3.9189 H   0  0  0  0  0  0  0  0  0  0  0  0
    1.3093   -3.6892   -2.2633 H   0  0  0  0  0  0  0  0  0  0  0  0
   -0.2767   -4.6488    0.5801 H   0  0  0  0  0  0  0  0  0  0  0  0
   -0.2993   -4.4792   -1.1916 H   0  0  0  0  0  0  0  0  0  0  0  0
    1.2501   -4.4630   -0.3158 H   0  0  0  0  0  0  0  0  0  0  0  0
    2.1189   -4.5061   -3.7012 H   0  0  0  0  0  0  0  0  0  0  0  0
    3.0450   -0.6529   -5.3552 H   0  0  0  0  0  0  0  0  0  0  0  0
    4.9946   -6.1883   -6.9660 H   0  0  0  0  0  0  0  0  0  0  0  0
    3.4449   -6.1811   -7.8518 H   0  0  0  0  0  0  0  0  0  0  0  0
    6.4830   -9.0670  -11.3956 H   0  0  0  0  0  0  0  0  0  0  0  0
    7.6869   -8.7641  -13.5027 H   0  0  0  0  0  0  0  0  0  0  0  0
    8.1778   -6.5070  -14.3433 H   0  0  0  0  0  0  0  0  0  0  0  0
    7.4697   -4.5238  -13.0835 H   0  0  0  0  0  0  0  0  0  0  0  0
    4.2239   -3.0041   -9.2050 H   0  0  0  0  0  0  0  0  0  0  0  0
    6.7147   -4.1779   -6.7066 H   0  0  0  0  0  0  0  0  0  0  0  0
    8.5759   -2.7807   -5.9101 H   0  0  0  0  0  0  0  0  0  0  0  0
    5.7025   -1.1909   -9.5748 H   0  0  0  0  0  0  0  0  0  0  0  0
    8.4121    0.5346   -9.6997 H   0  0  0  0  0  0  0  0  0  0  0  0
    6.9846    1.2803   -8.9198 H   0  0  0  0  0  0  0  0  0  0  0  0
    9.5658    1.7301   -8.0333 H   0  0  0  0  0  0  0  0  0  0  0  0
    8.1552    1.7289   -6.9227 H   0  0  0  0  0  0  0  0  0  0  0  0
    9.3542   -0.0317   -5.9113 H   0  0  0  0  0  0  0  0  0  0  0  0
   10.1990   -0.4548   -7.4311 H   0  0  0  0  0  0  0  0  0  0  0  0
    6.3471   -3.6839  -11.1106 H   0  0  0  0  0  0  0  0  0  0  0  0
  1  2  1  0  0  0  0
  1 40  1  0  0  0  0
  1 41  1  0  0  0  0
  1 42  1  0  0  0  0
  2  3  1  0  0  0  0
  3  8  2  0  0  0  0
  3  4  1  0  0  0  0
  4  5  2  0  0  0  0
  4 43  1  0  0  0  0
  5  6  1  0  0  0  0
  5 44  1  0  0  0  0
  6  7  2  0  0  0  0
  6 11  1  0  0  0  0
  7  8  1  0  0  0  0
  7 45  1  0  0  0  0
  8  9  1  0  0  0  0
  9 10  1  0  0  0  0
 10 46  1  0  0  0  0
 10 47  1  0  0  0  0
 10 48  1  0  0  0  0
 11 16  2  0  0  0  0
 11 12  1  0  0  0  0
 12 13  2  0  0  0  0
 12 49  1  0  0  0  0
 13 14  1  0  0  0  0
 14 15  2  0  0  0  0
 14 17  1  0  0  0  0
 15 16  1  0  0  0  0
 16 50  1  0  0  0  0
 17 29  1  0  0  0  0
 17 18  1  0  0  0  0
 18 19  1  0  0  0  0
 18 51  1  0  0  0  0
 18 52  1  0  0  0  0
 19 28  2  0  0  0  0
 19 20  1  0  0  0  0
 20 21  1  0  0  0  0
 20 39  2  0  0  0  0
 21 26  2  0  0  0  0
 21 22  1  0  0  0  0
 22 23  2  0  0  0  0
 22 53  1  0  0  0  0
 23 24  1  0  0  0  0
 23 54  1  0  0  0  0
 24 25  2  0  0  0  0
 24 55  1  0  0  0  0
 25 26  1  0  0  0  0
 25 56  1  0  0  0  0
 26 27  1  0  0  0  0
 27 28  1  0  0  0  0
 27 67  1  0  0  0  0
 28 29  1  0  0  0  0
 29 30  1  0  0  0  0
 29 57  1  0  0  0  0
 30 35  2  0  0  0  0
 30 31  1  0  0  0  0
 31 32  2  0  0  0  0
 31 58  1  0  0  0  0
 32 33  1  0  0  0  0
 32 59  1  0  0  0  0
 33 38  1  0  0  0  0
 33 34  2  0  0  0  0
 34 35  1  0  0  0  0
 34 36  1  0  0  0  0
 35 60  1  0  0  0  0
 36 37  1  0  0  0  0
 36 61  1  0  0  0  0
 36 62  1  0  0  0  0
 37 38  1  0  0  0  0
 37 63  1  0  0  0  0
 37 64  1  0  0  0  0
 38 65  1  0  0  0  0
 38 66  1  0  0  0  0
M  END
$$$$
CHEMBL336291
  -OEChem-07121202283D

 67 73  0     1  0  0  0  0  0999 V2000
   -0.0173    1.4248    0.0099 C   0  0  0  0  0  0  0  0  0  0  0  0
    0.0021   -0.0041    0.0020 O   0  0  0  0  0  0  0  0  0  0  0  0
    0.6062   -0.6075   -1.0563 C   0  0  0  0  0  0  0  0  0  0  0  0
    1.1723    0.1620   -2.0613 C   0  0  0  0  0  0  0  0  0  0  0  0
    1.7863   -0.4467   -3.1371 C   0  0  0  0  0  0  0  0  0  0  0  0
    1.8388   -1.8371   -3.2150 C   0  0  0  0  0  0  0  0  0  0  0  0
    1.2705   -2.6115   -2.2054 C   0  0  0  0  0  0  0  0  0  0  0  0
    0.6603   -1.9970   -1.1264 C   0  0  0  0  0  0  0  0  0  0  0  0
    0.1089   -2.7500   -0.1372 O   0  0  0  0  0  0  0  0  0  0  0  0
    0.2012   -4.1694   -0.2742 C   0  0  0  0  0  0  0  0  0  0  0  0
    2.4983   -2.4921   -4.3715 C   0  0  0  0  0  0  0  0  0  0  0  0
    2.5552   -3.8847   -4.4693 C   0  0  0  0  0  0  0  0  0  0  0  0
    3.1509   -4.4305   -5.5149 N   0  0  0  0  0  0  0  0  0  0  0  0
    3.6891   -3.6755   -6.4617 C   0  0  0  0  0  0  0  0  0  0  0  0
    3.6557   -2.3520   -6.4041 N   0  0  0  0  0  0  0  0  0  0  0  0
    3.0730   -1.7318   -5.3932 C   0  0  0  0  0  0  0  0  0  0  0  0
    4.3039   -4.2864   -7.5406 N   0  0  0  0  0  0  0  0  0  0  0  0
    4.4335   -5.7276   -7.7790 C   0  0  0  0  0  0  0  0  0  0  0  0
    5.1762   -5.9068   -9.0799 C   0  0  0  0  0  0  0  0  0  0  0  0
    5.5575   -7.0914   -9.7576 C   0  0  0  0  0  0  0  0  0  0  0  0
    6.2849   -6.9570  -11.0302 C   0  0  0  0  0  0  0  0  0  0  0  0
    6.6953   -8.0726  -11.7595 C   0  0  0  0  0  0  0  0  0  0  0  0
    7.3681   -7.9010  -12.9370 C   0  0  0  0  0  0  0  0  0  0  0  0
    7.6453   -6.6261  -13.4112 C   0  0  0  0  0  0  0  0  0  0  0  0
    7.2491   -5.5113  -12.7058 C   0  0  0  0  0  0  0  0  0  0  0  0
    6.5621   -5.6629  -11.5043 C   0  0  0  0  0  0  0  0  0  0  0  0
    6.1512   -4.5728  -10.7754 N   0  0  0  0  0  0  0  0  0  0  0  0
    5.4780   -4.6988   -9.5980 C   0  0  0  0  0  0  0  0  0  0  0  0
    4.9499   -3.6220   -8.6766 C   0  0  1  0  0  0  0  0  0  0  0  0
    3.9462   -2.7677   -9.4072 C   0  0  0  0  0  0  0  0  0  0  0  0
    2.6466   -3.2113   -9.5676 C   0  0  0  0  0  0  0  0  0  0  0  0
    1.7285   -2.4267  -10.2375 C   0  0  0  0  0  0  0  0  0  0  0  0
    2.1051   -1.1963  -10.7496 C   0  0  0  0  0  0  0  0  0  0  0  0
    3.4044   -0.7529  -10.5893 C   0  0  0  0  0  0  0  0  0  0  0  0
    4.3222   -1.5386   -9.9122 C   0  0  0  0  0  0  0  0  0  0  0  0
    3.5637    0.6079  -11.2328 C   0  0  0  0  0  0  0  0  0  0  0  0
    2.3510    0.7530  -12.1765 C   0  0  0  0  0  0  0  0  0  0  0  0
    1.3023   -0.1637  -11.5116 C   0  0  0  0  0  0  0  0  0  0  0  0
    5.2911   -8.1903   -9.2995 O   0  0  0  0  0  0  0  0  0  0  0  0
    1.0053    1.8021    0.0021 H   0  0  0  0  0  0  0  0  0  0  0  0
   -0.5445    1.7859   -0.8732 H   0  0  0  0  0  0  0  0  0  0  0  0
   -0.5275    1.7763    0.9067 H   0  0  0  0  0  0  0  0  0  0  0  0
    1.1325    1.2396   -2.0023 H   0  0  0  0  0  0  0  0  0  0  0  0
    2.2260    0.1547   -3.9189 H   0  0  0  0  0  0  0  0  0  0  0  0
    1.3093   -3.6892   -2.2633 H   0  0  0  0  0  0  0  0  0  0  0  0
   -0.2767   -4.6488    0.5801 H   0  0  0  0  0  0  0  0  0  0  0  0
   -0.2993   -4.4792   -1.1916 H   0  0  0  0  0  0  0  0  0  0  0  0
    1.2501   -4.4630   -0.3158 H   0  0  0  0  0  0  0  0  0  0  0  0
    2.1189   -4.5061   -3.7012 H   0  0  0  0  0  0  0  0  0  0  0  0
    3.0450   -0.6529   -5.3552 H   0  0  0  0  0  0  0  0  0  0  0  0
    4.9946   -6.1883   -6.9660 H   0  0  0  0  0  0  0  0  0  0  0  0
    3.4449   -6.1811   -7.8518 H   0  0  0  0  0  0  0  0  0  0  0  0
    6.4830   -9.0670  -11.3956 H   0  0  0  0  0  0  0  0  0  0  0  0
    7.6869   -8.7641  -13.5027 H   0  0  0  0  0  0  0  0  0  0  0  0
    8.1778   -6.5070  -14.3433 H   0  0  0  0  0  0  0  0  0  0  0  0
    7.4697   -4.5238  -13.0835 H   0  0  0  0  0  0  0  0  0  0  0  0
    5.7749   -3.0038   -8.3227 H   0  0  0  0  0  0  0  0  0  0  0  0
    2.3498   -4.1705   -9.1698 H   0  0  0  0  0  0  0  0  0  0  0  0
    0.7135   -2.7740  -10.3627 H   0  0  0  0  0  0  0  0  0  0  0  0
    5.3363   -1.1907   -9.7823 H   0  0  0  0  0  0  0  0  0  0  0  0
    3.5475    1.3896  -10.4733 H   0  0  0  0  0  0  0  0  0  0  0  0
    4.4927    0.6510  -11.8013 H   0  0  0  0  0  0  0  0  0  0  0  0
    2.0021    1.7853  -12.2031 H   0  0  0  0  0  0  0  0  0  0  0  0
    2.5952    0.3995  -13.1783 H   0  0  0  0  0  0  0  0  0  0  0  0
    0.6873   -0.6474  -12.2705 H   0  0  0  0  0  0  0  0  0  0  0  0
    0.6779    0.4104  -10.8270 H   0  0  0  0  0  0  0  0  0  0  0  0
    6.3471   -3.6839  -11.1106 H   0  0  0  0  0  0  0  0  0  0  0  0
  1  2  1  0  0  0  0
  1 40  1  0  0  0  0
  1 41  1  0  0  0  0
  1 42  1  0  0  0  0
  2  3  1  0  0  0  0
  3  8  2  0  0  0  0
  3  4  1  0  0  0  0
  4  5  2  0  0  0  0
  4 43  1  0  0  0  0
  5  6  1  0  0  0  0
  5 44  1  0  0  0  0
  6  7  2  0  0  0  0
  6 11  1  0  0  0  0
  7  8  1  0  0  0  0
  7 45  1  0  0  0  0
  8  9  1  0  0  0  0
  9 10  1  0  0  0  0
 10 46  1  0  0  0  0
 10 47  1  0  0  0  0
 10 48  1  0  0  0  0
 11 16  2  0  0  0  0
 11 12  1  0  0  0  0
 12 13  2  0  0  0  0
 12 49  1  0  0  0  0
 13 14  1  0  0  0  0
 14 15  2  0  0  0  0
 14 17  1  0  0  0  0
 15 16  1  0  0  0  0
 16 50  1  0  0  0  0
 17 29  1  0  0  0  0
 17 18  1  0  0  0  0
 18 19  1  0  0  0  0
 18 51  1  0  0  0  0
 18 52  1  0  0  0  0
 19 28  2  0  0  0  0
 19 20  1  0  0  0  0
 20 21  1  0  0  0  0
 20 39  2  0  0  0  0
 21 26  2  0  0  0  0
 21 22  1  0  0  0  0
 22 23  2  0  0  0  0
 22 53  1  0  0  0  0
 23 24  1  0  0  0  0
 23 54  1  0  0  0  0
 24 25  2  0  0  0  0
 24 55  1  0  0  0  0
 25 26  1  0  0  0  0
 25 56  1  0  0  0  0
 26 27  1  0  0  0  0
 27 28  1  0  0  0  0
 27 67  1  0  0  0  0
 28 29  1  0  0  0  0
 29 30  1  0  0  0  0
 29 57  1  0  0  0  0
 30 35  2  0  0  0  0
 30 31  1  0  0  0  0
 31 32  2  0  0  0  0
 31 58  1  0  0  0  0
 32 33  1  0  0  0  0
 32 59  1  0  0  0  0
 33 38  1  0  0  0  0
 33 34  2  0  0  0  0
 34 35  1  0  0  0  0
 34 36  1  0  0  0  0
 35 60  1  0  0  0  0
 36 37  1  0  0  0  0
 36 61  1  0  0  0  0
 36 62  1  0  0  0  0
 37 38  1  0  0  0  0
 37 63  1  0  0  0  0
 37 64  1  0  0  0  0
 38 65  1  0  0  0  0
 38 66  1  0  0  0  0
M  END
$$$$
CHEMBL344852
  -OEChem-07121202283D

 44 48  0     1  0  0  0  0  0999 V2000
   -0.0178    1.4608    0.0101 C   0  0  0  0  0  0  0  0  0  0  0  0
    0.0021   -0.0041    0.0020 N   0  0  0  0  0  0  0  0  0  0  0  0
    0.0053   -0.6498   -1.1771 C   0  0  0  0  0  0  0  0  0  0  0  0
   -0.0099   -0.0266   -2.2213 O   0  0  0  0  0  0  0  0  0  0  0  0
    0.0278   -2.1191   -1.1869 C   0  0  0  0  0  0  0  0  0  0  0  0
    0.0378   -3.0732   -2.1781 C   0  0  0  0  0  0  0  0  0  0  0  0
    0.0602   -4.2744   -1.5779 N   0  0  0  0  0  0  0  0  0  0  0  0
    0.0641   -4.0829   -0.1906 N   0  0  0  0  0  0  0  0  0  0  0  0
    0.0717   -5.1324   -2.0304 H   0  0  0  0  0  0  0  0  0  0  0  0
    0.0445   -2.8001    0.0591 C   0  0  0  0  0  0  0  0  0  0  0  0
    0.0372   -2.0536    1.2392 N   0  0  0  0  0  0  0  0  0  0  0  0
    0.0228   -0.6839    1.2120 C   0  0  0  0  0  0  0  0  0  0  0  0
    0.0249   -0.1496    2.4041 N   0  3  0  0  0  0  0  0  0  0  0  0
    0.0504   -1.1840    3.4405 C   0  0  1  0  0  0  0  0  0  0  0  0
   -0.8096   -1.1146    4.1066 H   0  0  0  0  0  0  0  0  0  0  0  0
    0.0475   -2.5075    2.6409 C   0  0  2  0  0  0  0  0  0  0  0  0
   -0.8055   -3.1439    2.8763 H   0  0  0  0  0  0  0  0  0  0  0  0
    1.3976   -3.1878    2.9427 C   0  0  0  0  0  0  0  0  0  0  0  0
    2.3237   -2.0253    3.3773 C   0  0  0  0  0  0  0  0  0  0  0  0
    1.3833   -1.1059    4.2122 C   0  0  0  0  0  0  0  0  0  0  0  0
    0.0255   -2.8174   -3.6631 C   0  0  0  0  0  0  0  0  0  0  0  0
    1.4347   -2.5872   -4.1449 C   0  0  0  0  0  0  0  0  0  0  0  0
    1.9607   -1.3088   -4.1575 C   0  0  0  0  0  0  0  0  0  0  0  0
    3.2533   -1.0976   -4.5994 C   0  0  0  0  0  0  0  0  0  0  0  0
    4.0202   -2.1648   -5.0284 C   0  0  0  0  0  0  0  0  0  0  0  0
    3.4946   -3.4432   -5.0149 C   0  0  0  0  0  0  0  0  0  0  0  0
    2.2034   -3.6550   -4.5690 C   0  0  0  0  0  0  0  0  0  0  0  0
    1.0048    1.8381    0.0023 H   0  0  0  0  0  0  0  0  0  0  0  0
   -0.5450    1.8219   -0.8730 H   0  0  0  0  0  0  0  0  0  0  0  0
   -0.5280    1.8123    0.9069 H   0  0  0  0  0  0  0  0  0  0  0  0
    1.2878   -3.9102    3.7515 H   0  0  0  0  0  0  0  0  0  0  0  0
    1.7885   -3.6724    2.0481 H   0  0  0  0  0  0  0  0  0  0  0  0
    3.1413   -2.3937    3.9969 H   0  0  0  0  0  0  0  0  0  0  0  0
    2.7069   -1.4910    2.5079 H   0  0  0  0  0  0  0  0  0  0  0  0
    1.7464   -0.0786    4.2431 H   0  0  0  0  0  0  0  0  0  0  0  0
    1.2632   -1.4994    5.2215 H   0  0  0  0  0  0  0  0  0  0  0  0
   -0.3977   -3.6806   -4.1770 H   0  0  0  0  0  0  0  0  0  0  0  0
   -0.5795   -1.9359   -3.8750 H   0  0  0  0  0  0  0  0  0  0  0  0
    1.3615   -0.4751   -3.8224 H   0  0  0  0  0  0  0  0  0  0  0  0
    3.6640   -0.0988   -4.6099 H   0  0  0  0  0  0  0  0  0  0  0  0
    5.0299   -1.9996   -5.3743 H   0  0  0  0  0  0  0  0  0  0  0  0
    4.0936   -4.2769   -5.3504 H   0  0  0  0  0  0  0  0  0  0  0  0
    1.7940   -4.6543   -4.5550 H   0  0  0  0  0  0  0  0  0  0  0  0
    0.0116    0.8044    2.5793 H   0  0  0  0  0  0  0  0  0  0  0  0
  1  2  1  0  0  0  0
  1 28  1  0  0  0  0
  1 29  1  0  0  0  0
  1 30  1  0  0  0  0
  2 12  1  0  0  0  0
  2  3  1  0  0  0  0
  3  4  2  0  0  0  0
  3  5  1  0  0  0  0
  5 10  1  0  0  0  0
  5  6  2  0  0  0  0
  6 21  1  0  0  0  0
  6  7  1  0  0  0  0
  7  8  1  0  0  0  0
  7  9  1  0  0  0  0
  8 10  2  0  0  0  0
 10 11  1  0  0  0  0
 11 16  1  0  0  0  0
 11 12  1  0  0  0  0
 12 13  2  0  0  0  0
 13 14  1  0  0  0  0
 13 44  1  0  0  0  0
 14 15  1  0  0  0  0
 14 20  1  0  0  0  0
 14 16  1  0  0  0  0
 16 17  1  0  0  0  0
 16 18  1  0  0  0  0
 18 19  1  0  0  0  0
 18 31  1  0  0  0  0
 18 32  1  0  0  0  0
 19 20  1  0  0  0  0
 19 33  1  0  0  0  0
 19 34  1  0  0  0  0
 20 35  1  0  0  0  0
 20 36  1  0  0  0  0
 21 22  1  0  0  0  0
 21 37  1  0  0  0  0
 21 38  1  0  0  0  0
 22 27  2  0  0  0  0
 22 23  1  0  0  0  0
 23 24  2  0  0  0  0
 23 39  1  0  0  0  0
 24 25  1  0  0  0  0
 24 40  1  0  0  0  0
 25 26  2  0  0  0  0
 25 41  1  0  0  0  0
 26 27  1  0  0  0  0
 26 42  1  0  0  0  0
 27 43  1  0  0  0  0
M  CHG  1  13   1
M  END
$$$$
CHEMBL344852
  -OEChem-07121202283D

 44 48  0     1  0  0  0  0  0999 V2000
   -0.0178    1.4608    0.0101 C   0  0  0  0  0  0  0  0  0  0  0  0
    0.0021   -0.0041    0.0020 N   0  0  0  0  0  0  0  0  0  0  0  0
    0.0054   -0.6564   -1.1747 C   0  0  0  0  0  0  0  0  0  0  0  0
   -0.0091   -0.0388   -2.2231 O   0  0  0  0  0  0  0  0  0  0  0  0
    0.0272   -2.1213   -1.1750 C   0  0  0  0  0  0  0  0  0  0  0  0
    0.0352   -3.1024   -2.1873 C   0  0  0  0  0  0  0  0  0  0  0  0
    0.0566   -4.2739   -1.6131 N   0  0  0  0  0  0  0  0  0  0  0  0
    0.0631   -4.1064   -0.2227 N   0  0  0  0  0  0  0  0  0  0  0  0
    0.0787   -4.8198    0.4343 H   0  0  0  0  0  0  0  0  0  0  0  0
    0.0446   -2.7880    0.0476 C   0  0  0  0  0  0  0  0  0  0  0  0
    0.0394   -2.0606    1.2212 N   0  0  0  0  0  0  0  0  0  0  0  0
    0.0228   -0.6899    1.2081 C   0  0  0  0  0  0  0  0  0  0  0  0
    0.0231   -0.1664    2.4044 N   0  3  0  0  0  0  0  0  0  0  0  0
    0.0506   -1.2108    3.4310 C   0  0  1  0  0  0  0  0  0  0  0  0
   -0.8099   -1.1499    4.0973 H   0  0  0  0  0  0  0  0  0  0  0  0
    0.0526   -2.5267    2.6191 C   0  0  2  0  0  0  0  0  0  0  0  0
   -0.7983   -3.1678    2.8497 H   0  0  0  0  0  0  0  0  0  0  0  0
    1.4049   -3.2059    2.9134 C   0  0  0  0  0  0  0  0  0  0  0  0
    2.3279   -2.0451    3.3591 C   0  0  0  0  0  0  0  0  0  0  0  0
    1.3830   -1.1363    4.2039 C   0  0  0  0  0  0  0  0  0  0  0  0
    0.0211   -2.8436   -3.6718 C   0  0  0  0  0  0  0  0  0  0  0  0
    1.4370   -2.7357   -4.1764 C   0  0  0  0  0  0  0  0  0  0  0  0
    2.0718   -1.5079   -4.1969 C   0  0  0  0  0  0  0  0  0  0  0  0
    3.3706   -1.4090   -4.6597 C   0  0  0  0  0  0  0  0  0  0  0  0
    4.0347   -2.5379   -5.1017 C   0  0  0  0  0  0  0  0  0  0  0  0
    3.4003   -3.7658   -5.0804 C   0  0  0  0  0  0  0  0  0  0  0  0
    2.1030   -3.8655   -4.6136 C   0  0  0  0  0  0  0  0  0  0  0  0
    1.0048    1.8381    0.0023 H   0  0  0  0  0  0  0  0  0  0  0  0
   -0.5450    1.8219   -0.8730 H   0  0  0  0  0  0  0  0  0  0  0  0
   -0.5280    1.8123    0.9069 H   0  0  0  0  0  0  0  0  0  0  0  0
    1.2978   -3.9368    3.7149 H   0  0  0  0  0  0  0  0  0  0  0  0
    1.7967   -3.6803    2.0137 H   0  0  0  0  0  0  0  0  0  0  0  0
    3.1467   -2.4173    3.9748 H   0  0  0  0  0  0  0  0  0  0  0  0
    2.7092   -1.5011    2.4950 H   0  0  0  0  0  0  0  0  0  0  0  0
    1.7429   -0.1082    4.2454 H   0  0  0  0  0  0  0  0  0  0  0  0
    1.2638   -1.5404    5.2092 H   0  0  0  0  0  0  0  0  0  0  0  0
   -0.4838   -3.6657   -4.1792 H   0  0  0  0  0  0  0  0  0  0  0  0
   -0.5084   -1.9124   -3.8733 H   0  0  0  0  0  0  0  0  0  0  0  0
    1.5529   -0.6259   -3.8515 H   0  0  0  0  0  0  0  0  0  0  0  0
    3.8663   -0.4496   -4.6763 H   0  0  0  0  0  0  0  0  0  0  0  0
    5.0492   -2.4604   -5.4640 H   0  0  0  0  0  0  0  0  0  0  0  0
    3.9191   -4.6478   -5.4260 H   0  0  0  0  0  0  0  0  0  0  0  0
    1.6085   -4.8255   -4.5934 H   0  0  0  0  0  0  0  0  0  0  0  0
    0.0072    0.7858    2.5884 H   0  0  0  0  0  0  0  0  0  0  0  0
  1  2  1  0  0  0  0
  1 28  1  0  0  0  0
  1 29  1  0  0  0  0
  1 30  1  0  0  0  0
  2 12  1  0  0  0  0
  2  3  1  0  0  0  0
  3  4  2  0  0  0  0
  3  5  1  0  0  0  0
  5  6  1  0  0  0  0
  5 10  2  0  0  0  0
  6  7  2  0  0  0  0
  6 21  1  0  0  0  0
  7  8  1  0  0  0  0
  8 10  1  0  0  0  0
  8  9  1  0  0  0  0
 10 11  1  0  0  0  0
 11 16  1  0  0  0  0
 11 12  1  0  0  0  0
 12 13  2  0  0  0  0
 13 14  1  0  0  0  0
 13 44  1  0  0  0  0
 14 15  1  0  0  0  0
 14 20  1  0  0  0  0
 14 16  1  0  0  0  0
 16 17  1  0  0  0  0
 16 18  1  0  0  0  0
 18 19  1  0  0  0  0
 18 31  1  0  0  0  0
 18 32  1  0  0  0  0
 19 20  1  0  0  0  0
 19 33  1  0  0  0  0
 19 34  1  0  0  0  0
 20 35  1  0  0  0  0
 20 36  1  0  0  0  0
 21 22  1  0  0  0  0
 21 37  1  0  0  0  0
 21 38  1  0  0  0  0
 22 27  2  0  0  0  0
 22 23  1  0  0  0  0
 23 24  2  0  0  0  0
 23 39  1  0  0  0  0
 24 25  1  0  0  0  0
 24 40  1  0  0  0  0
 25 26  2  0  0  0  0
 25 41  1  0  0  0  0
 26 27  1  0  0  0  0
 26 42  1  0  0  0  0
 27 43  1  0  0  0  0
M  CHG  1  13   1
M  END
$$$$
CHEMBL71478
  -OEChem-07121202283D

 70 73  0     0  0  0  0  0  0999 V2000
   -0.0218    1.8831    0.0618 C   0  0  0  0  0  0  0  0  0  0  0  0
   -0.1186    0.4589   -0.0029 O   0  0  0  0  0  0  0  0  0  0  0  0
    0.4618   -0.2459    1.0050 C   0  0  0  0  0  0  0  0  0  0  0  0
    1.1034    0.4200    2.0334 C   0  0  0  0  0  0  0  0  0  0  0  0
    1.6993   -0.3042    3.0681 C   0  0  0  0  0  0  0  0  0  0  0  0
    1.6455   -1.6997    3.0615 C   0  0  0  0  0  0  0  0  0  0  0  0
    1.0027   -2.3609    2.0309 C   0  0  0  0  0  0  0  0  0  0  0  0
    0.4047   -1.6366    1.0037 C   0  0  0  0  0  0  0  0  0  0  0  0
   -0.2320   -2.2889   -0.0055 O   0  0  0  0  0  0  0  0  0  0  0  0
    0.5531   -2.6441   -1.1454 C   0  0  0  0  0  0  0  0  0  0  0  0
    0.9500   -3.7198    2.0239 O   0  0  0  0  0  0  0  0  0  0  0  0
    1.5796   -4.3991    3.1121 C   0  0  0  0  0  0  0  0  0  0  0  0
    2.3860    0.4048    4.1680 C   0  0  0  0  0  0  0  0  0  0  0  0
    3.5932    1.2018    3.9023 C   0  0  0  0  0  0  0  0  0  0  0  0
    4.1247    1.3151    2.6198 C   0  0  0  0  0  0  0  0  0  0  0  0
    5.2614    2.0753    2.4156 C   0  0  0  0  0  0  0  0  0  0  0  0
    5.8790    2.7290    3.4865 C   0  0  0  0  0  0  0  0  0  0  0  0
    5.3625    2.6253    4.7638 C   0  0  0  0  0  0  0  0  0  0  0  0
    4.2166    1.8626    4.9850 C   0  0  0  0  0  0  0  0  0  0  0  0
    3.6337    1.7258    6.3264 C   0  0  0  0  0  0  0  0  0  0  0  0
    4.1515    2.2854    7.2758 O   0  0  0  0  0  0  0  0  0  0  0  0
    2.5265    0.9816    6.5051 N   0  0  0  0  0  0  0  0  0  0  0  0
    1.8995    0.3330    5.4594 C   0  0  0  0  0  0  0  0  0  0  0  0
    0.6928   -0.4557    5.7268 C   0  0  0  0  0  0  0  0  0  0  0  0
    0.7905   -1.6057    6.1101 O   0  0  0  0  0  0  0  0  0  0  0  0
   -0.5261    0.0945    5.5476 O   0  0  0  0  0  0  0  0  0  0  0  0
   -1.6581   -0.7316    5.8272 C   0  0  0  0  0  0  0  0  0  0  0  0
    1.9642    0.8606    7.8525 C   0  0  0  0  0  0  0  0  0  0  0  0
    1.5838    2.2482    8.3728 C   0  0  0  0  0  0  0  0  0  0  0  0
    0.9967    2.1218    9.7800 C   0  0  0  0  0  0  0  0  0  0  0  0
    2.0357    1.4949   10.7118 C   0  0  0  0  0  0  0  0  0  0  0  0
    2.4161    0.1073   10.1914 C   0  0  0  0  0  0  0  0  0  0  0  0
    3.0033    0.2337    8.7842 C   0  0  0  0  0  0  0  0  0  0  0  0
    6.9962    3.4716    3.2692 O   0  0  0  0  0  0  0  0  0  0  0  0
    7.5791    4.1141    4.4048 C   0  0  0  0  0  0  0  0  0  0  0  0
    5.7821    2.1876    1.1661 O   0  0  0  0  0  0  0  0  0  0  0  0
    5.1040    1.4950    0.1161 C   0  0  0  0  0  0  0  0  0  0  0  0
    1.0280    2.1765    0.0576 H   0  0  0  0  0  0  0  0  0  0  0  0
   -0.5249    2.3210   -0.8002 H   0  0  0  0  0  0  0  0  0  0  0  0
   -0.4946    2.2381    0.9775 H   0  0  0  0  0  0  0  0  0  0  0  0
    1.1440    1.4993    2.0361 H   0  0  0  0  0  0  0  0  0  0  0  0
    2.1059   -2.2620    3.8604 H   0  0  0  0  0  0  0  0  0  0  0  0
   -0.0749   -3.1575   -1.8734 H   0  0  0  0  0  0  0  0  0  0  0  0
    0.9687   -1.7426   -1.5956 H   0  0  0  0  0  0  0  0  0  0  0  0
    1.3645   -3.3033   -0.8366 H   0  0  0  0  0  0  0  0  0  0  0  0
    1.4643   -5.4754    2.9841 H   0  0  0  0  0  0  0  0  0  0  0  0
    2.6399   -4.1472    3.1330 H   0  0  0  0  0  0  0  0  0  0  0  0
    1.1148   -4.0928    4.0493 H   0  0  0  0  0  0  0  0  0  0  0  0
    3.6518    0.8116    1.7896 H   0  0  0  0  0  0  0  0  0  0  0  0
    5.8442    3.1322    5.5868 H   0  0  0  0  0  0  0  0  0  0  0  0
   -1.6354   -1.6097    5.1819 H   0  0  0  0  0  0  0  0  0  0  0  0
   -1.6294   -1.0464    6.8703 H   0  0  0  0  0  0  0  0  0  0  0  0
   -2.5731   -0.1686    5.6426 H   0  0  0  0  0  0  0  0  0  0  0  0
    1.0767    0.2287    7.8204 H   0  0  0  0  0  0  0  0  0  0  0  0
    2.4714    2.8801    8.4049 H   0  0  0  0  0  0  0  0  0  0  0  0
    0.8436    2.6948    7.7090 H   0  0  0  0  0  0  0  0  0  0  0  0
    0.7256    3.1104   10.1507 H   0  0  0  0  0  0  0  0  0  0  0  0
    0.1091    1.4899    9.7480 H   0  0  0  0  0  0  0  0  0  0  0  0
    2.9233    2.1269   10.7438 H   0  0  0  0  0  0  0  0  0  0  0  0
    1.6174    1.4049   11.7143 H   0  0  0  0  0  0  0  0  0  0  0  0
    3.1564   -0.3393   10.8552 H   0  0  0  0  0  0  0  0  0  0  0  0
    1.5286   -0.5246   10.1594 H   0  0  0  0  0  0  0  0  0  0  0  0
    3.2743   -0.7549    8.4135 H   0  0  0  0  0  0  0  0  0  0  0  0
    3.8908    0.8656    8.8163 H   0  0  0  0  0  0  0  0  0  0  0  0
    6.8545    4.7976    4.8473 H   0  0  0  0  0  0  0  0  0  0  0  0
    7.8656    3.3623    5.1402 H   0  0  0  0  0  0  0  0  0  0  0  0
    8.4619    4.6723    4.0930 H   0  0  0  0  0  0  0  0  0  0  0  0
    4.0803    1.8616    0.0408 H   0  0  0  0  0  0  0  0  0  0  0  0
    5.6222    1.6681   -0.8271 H   0  0  0  0  0  0  0  0  0  0  0  0
    5.0924    0.4270    0.3336 H   0  0  0  0  0  0  0  0  0  0  0  0
  1  2  1  0  0  0  0
  1 38  1  0  0  0  0
  1 39  1  0  0  0  0
  1 40  1  0  0  0  0
  2  3  1  0  0  0  0
  3  8  2  0  0  0  0
  3  4  1  0  0  0  0
  4  5  2  0  0  0  0
  4 41  1  0  0  0  0
  5  6  1  0  0  0  0
  5 13  1  0  0  0  0
  6  7  2  0  0  0  0
  6 42  1  0  0  0  0
  7  8  1  0  0  0  0
  7 11  1  0  0  0  0
  8  9  1  0  0  0  0
  9 10  1  0  0  0  0
 10 43  1  0  0  0  0
 10 44  1  0  0  0  0
 10 45  1  0  0  0  0
 11 12  1  0  0  0  0
 12 46  1  0  0  0  0
 12 47  1  0  0  0  0
 12 48  1  0  0  0  0
 13 23  2  0  0  0  0
 13 14  1  0  0  0  0
 14 19  2  0  0  0  0
 14 15  1  0  0  0  0
 15 16  2  0  0  0  0
 15 49  1  0  0  0  0
 16 17  1  0  0  0  0
 16 36  1  0  0  0  0
 17 18  2  0  0  0  0
 17 34  1  0  0  0  0
 18 19  1  0  0  0  0
 18 50  1  0  0  0  0
 19 20  1  0  0  0  0
 20 21  2  0  0  0  0
 20 22  1  0  0  0  0
 22 23  1  0  0  0  0
 22 28  1  0  0  0  0
 23 24  1  0  0  0  0
 24 25  2  0  0  0  0
 24 26  1  0  0  0  0
 26 27  1  0  0  0  0
 27 51  1  0  0  0  0
 27 52  1  0  0  0  0
 27 53  1  0  0  0  0
 28 33  1  0  0  0  0
 28 29  1  0  0  0  0
 28 54  1  0  0  0  0
 29 30  1  0  0  0  0
 29 55  1  0  0  0  0
 29 56  1  0  0  0  0
 30 31  1  0  0  0  0
 30 57  1  0  0  0  0
 30 58  1  0  0  0  0
 31 32  1  0  0  0  0
 31 59  1  0  0  0  0
 31 60  1  0  0  0  0
 32 33  1  0  0  0  0
 32 61  1  0  0  0  0
 32 62  1  0  0  0  0
 33 63  1  0  0  0  0
 33 64  1  0  0  0  0
 34 35  1  0  0  0  0
 35 65  1  0  0  0  0
 35 66  1  0  0  0  0
 35 67  1  0  0  0  0
 36 37  1  0  0  0  0
 37 68  1  0  0  0  0
 37 69  1  0  0  0  0
 37 70  1  0  0  0  0
M  END
$$$$
CHEMBL563130
  -OEChem-07121202283D

 63 67  0     0  0  0  0  0  0999 V2000
   -0.0170    1.4006    0.0097 C   0  0  0  0  0  0  0  0  0  0  0  0
    1.1767    2.0697    0.0019 C   0  0  0  0  0  0  0  0  0  0  0  0
    2.3718    1.3471   -0.0133 C   0  0  0  0  0  0  0  0  0  0  0  0
    2.3713    0.0218   -0.0204 N   0  0  0  0  0  0  0  0  0  0  0  0
    1.2425   -0.6708   -0.0134 C   0  0  0  0  0  0  0  0  0  0  0  0
    0.0021   -0.0041    0.0020 C   0  0  0  0  0  0  0  0  0  0  0  0
   -1.1546   -0.6949    0.0089 N   0  0  0  0  0  0  0  0  0  0  0  0
   -1.1563   -2.0043    0.0019 C   0  0  0  0  0  0  0  0  0  0  0  0
    0.1210   -2.7420   -0.0138 C   0  0  0  0  0  0  0  0  0  0  0  0
    0.1291   -3.9590   -0.0204 O   0  0  0  0  0  0  0  0  0  0  0  0
    1.2811   -2.0510   -0.0211 N   0  0  0  0  0  0  0  0  0  0  0  0
    2.5647   -2.7570   -0.0367 C   0  0  0  0  0  0  0  0  0  0  0  0
    3.0247   -3.0105    1.4003 C   0  0  0  0  0  0  0  0  0  0  0  0
    3.3064   -1.6736    2.0890 C   0  0  0  0  0  0  0  0  0  0  0  0
    3.7664   -1.9271    3.5260 C   0  0  0  0  0  0  0  0  0  0  0  0
    5.0419   -2.7720    3.5116 C   0  0  0  0  0  0  0  0  0  0  0  0
    4.7602   -4.1089    2.8229 C   0  0  0  0  0  0  0  0  0  0  0  0
    4.3002   -3.8554    1.3859 C   0  0  0  0  0  0  0  0  0  0  0  0
   -2.3545   -2.6950    0.0096 N   0  0  0  0  0  0  0  0  0  0  0  0
   -3.6227   -1.9616    0.0256 C   0  0  0  0  0  0  0  0  0  0  0  0
   -4.7863   -2.9551    0.0313 C   0  0  0  0  0  0  0  0  0  0  0  0
   -4.7990   -3.7369   -1.2858 C   0  0  0  0  0  0  0  0  0  0  0  0
   -6.0115   -4.6715   -1.3037 C   0  0  0  0  0  0  0  0  0  0  0  0
   -7.2052   -3.9041   -1.1359 O   0  0  0  0  0  0  0  0  0  0  0  0
   -7.2703   -3.1889    0.0995 C   0  0  0  0  0  0  0  0  0  0  0  0
   -6.1084   -2.1948    0.1738 C   0  0  0  0  0  0  0  0  0  0  0  0
    3.6634    2.0751   -0.0223 C   0  0  0  0  0  0  0  0  0  0  0  0
    3.7001    3.4728   -0.0097 C   0  0  0  0  0  0  0  0  0  0  0  0
    4.9241    4.1102   -0.0182 C   0  0  0  0  0  0  0  0  0  0  0  0
    6.0474    3.4191   -0.0378 N   0  0  0  0  0  0  0  0  0  0  0  0
    6.0570    2.1001   -0.0502 C   0  0  0  0  0  0  0  0  0  0  0  0
    4.8781    1.3829   -0.0376 C   0  0  0  0  0  0  0  0  0  0  0  0
   -0.9524    1.9402    0.0260 H   0  0  0  0  0  0  0  0  0  0  0  0
    1.1945    3.1496    0.0072 H   0  0  0  0  0  0  0  0  0  0  0  0
    2.4494   -3.7091   -0.5546 H   0  0  0  0  0  0  0  0  0  0  0  0
    3.3072   -2.1495   -0.5541 H   0  0  0  0  0  0  0  0  0  0  0  0
    2.2432   -3.5415    1.9437 H   0  0  0  0  0  0  0  0  0  0  0  0
    4.0879   -1.1425    1.5456 H   0  0  0  0  0  0  0  0  0  0  0  0
    2.3977   -1.0716    2.0992 H   0  0  0  0  0  0  0  0  0  0  0  0
    3.9671   -0.9746    4.0166 H   0  0  0  0  0  0  0  0  0  0  0  0
    2.9849   -2.4581    4.0694 H   0  0  0  0  0  0  0  0  0  0  0  0
    5.8234   -2.2409    2.9682 H   0  0  0  0  0  0  0  0  0  0  0  0
    5.3696   -2.9526    4.5354 H   0  0  0  0  0  0  0  0  0  0  0  0
    5.6689   -4.7109    2.8127 H   0  0  0  0  0  0  0  0  0  0  0  0
    3.9787   -4.6400    3.3663 H   0  0  0  0  0  0  0  0  0  0  0  0
    4.0995   -4.8078    0.8953 H   0  0  0  0  0  0  0  0  0  0  0  0
    5.0817   -3.3243    0.8426 H   0  0  0  0  0  0  0  0  0  0  0  0
   -2.3553   -3.6650    0.0044 H   0  0  0  0  0  0  0  0  0  0  0  0
   -3.6715   -1.3397    0.9194 H   0  0  0  0  0  0  0  0  0  0  0  0
   -3.6884   -1.3302   -0.8604 H   0  0  0  0  0  0  0  0  0  0  0  0
   -4.6714   -3.6464    0.8662 H   0  0  0  0  0  0  0  0  0  0  0  0
   -4.8633   -3.0408   -2.1220 H   0  0  0  0  0  0  0  0  0  0  0  0
   -3.8848   -4.3247   -1.3694 H   0  0  0  0  0  0  0  0  0  0  0  0
   -6.0495   -5.1993   -2.2567 H   0  0  0  0  0  0  0  0  0  0  0  0
   -5.9261   -5.3933   -0.4914 H   0  0  0  0  0  0  0  0  0  0  0  0
   -8.2152   -2.6486    0.1575 H   0  0  0  0  0  0  0  0  0  0  0  0
   -7.2014   -3.8913    0.9302 H   0  0  0  0  0  0  0  0  0  0  0  0
   -6.1307   -1.6796    1.1342 H   0  0  0  0  0  0  0  0  0  0  0  0
   -6.1991   -1.4675   -0.6329 H   0  0  0  0  0  0  0  0  0  0  0  0
    2.7843    4.0450    0.0060 H   0  0  0  0  0  0  0  0  0  0  0  0
    4.9627    5.1895   -0.0090 H   0  0  0  0  0  0  0  0  0  0  0  0
    7.0003    1.5744   -0.0665 H   0  0  0  0  0  0  0  0  0  0  0  0
    4.8934    0.3030   -0.0432 H   0  0  0  0  0  0  0  0  0  0  0  0
  1  6  2  0  0  0  0
  1  2  1  0  0  0  0
  1 33  1  0  0  0  0
  2  3  2  0  0  0  0
  2 34  1  0  0  0  0
  3  4  1  0  0  0  0
  3 27  1  0  0  0  0
  4  5  2  0  0  0  0
  5 11  1  0  0  0  0
  5  6  1  0  0  0  0
  6  7  1  0  0  0  0
  7  8  2  0  0  0  0
  8  9  1  0  0  0  0
  8 19  1  0  0  0  0
  9 10  2  0  0  0  0
  9 11  1  0  0  0  0
 11 12  1  0  0  0  0
 12 13  1  0  0  0  0
 12 35  1  0  0  0  0
 12 36  1  0  0  0  0
 13 18  1  0  0  0  0
 13 14  1  0  0  0  0
 13 37  1  0  0  0  0
 14 15  1  0  0  0  0
 14 38  1  0  0  0  0
 14 39  1  0  0  0  0
 15 16  1  0  0  0  0
 15 40  1  0  0  0  0
 15 41  1  0  0  0  0
 16 17  1  0  0  0  0
 16 42  1  0  0  0  0
 16 43  1  0  0  0  0
 17 18  1  0  0  0  0
 17 44  1  0  0  0  0
 17 45  1  0  0  0  0
 18 46  1  0  0  0  0
 18 47  1  0  0  0  0
 19 20  1  0  0  0  0
 19 48  1  0  0  0  0
 20 21  1  0  0  0  0
 20 49  1  0  0  0  0
 20 50  1  0  0  0  0
 21 26  1  0  0  0  0
 21 22  1  0  0  0  0
 21 51  1  0  0  0  0
 22 23  1  0  0  0  0
 22 52  1  0  0  0  0
 22 53  1  0  0  0  0
 23 24  1  0  0  0  0
 23 54  1  0  0  0  0
 23 55  1  0  0  0  0
 24 25  1  0  0  0  0
 25 26  1  0  0  0  0
 25 56  1  0  0  0  0
 25 57  1  0  0  0  0
 26 58  1  0  0  0  0
 26 59  1  0  0  0  0
 27 32  2  0  0  0  0
 27 28  1  0  0  0  0
 28 29  2  0  0  0  0
 28 60  1  0  0  0  0
 29 30  1  0  0  0  0
 29 61  1  0  0  0  0
 30 31  2  0  0  0  0
 31 32  1  0  0  0  0
 31 62  1  0  0  0  0
 32 63  1  0  0  0  0
M  END
$$$$
CHEMBL1094191
  -OEChem-07121202283D

 70 73  0     0  0  0  0  0  0999 V2000
   -7.7801    4.5562    2.1873 C   0  0  0  0  0  0  0  0  0  0  0  0
   -7.0337    3.4036    2.8620 C   0  0  0  0  0  0  0  0  0  0  0  0
   -6.1972    2.6795    1.8387 C   0  0  0  0  0  0  0  0  0  0  0  0
   -6.6230    1.5873    1.0531 C   0  0  0  0  0  0  0  0  0  0  0  0
   -5.5370    1.2219    0.2387 C   0  0  0  0  0  0  0  0  0  0  0  0
   -5.6975    0.1485   -0.6488 C   0  0  0  0  0  0  0  0  0  0  0  0
   -6.8670   -0.4788   -0.6841 N   0  0  0  0  0  0  0  0  0  0  0  0
   -7.8714   -0.1056    0.1007 C   0  0  0  0  0  0  0  0  0  0  0  0
   -7.7677    0.8981    0.9513 N   0  0  0  0  0  0  0  0  0  0  0  0
   -9.0715   -0.7946    0.0232 N   0  0  0  0  0  0  0  0  0  0  0  0
  -10.1517   -0.4926    0.9657 C   0  0  0  0  0  0  0  0  0  0  0  0
   -9.2598   -1.8249   -1.0011 C   0  0  0  0  0  0  0  0  0  0  0  0
  -10.5346   -1.5293   -1.7965 C   0  0  0  0  0  0  0  0  0  0  0  0
  -10.7680   -2.6510   -2.8108 C   0  0  0  0  0  0  0  0  0  0  0  0
  -10.9148   -3.9301   -2.1061 N   0  3  0  0  0  0  0  0  0  0  0  0
   -9.6702   -4.2550   -1.3992 C   0  0  0  0  0  0  0  0  0  0  0  0
   -9.3945   -3.1951   -0.3305 C   0  0  0  0  0  0  0  0  0  0  0  0
  -11.2159   -4.9907   -3.0770 C   0  0  0  0  0  0  0  0  0  0  0  0
   -4.6568   -0.2493   -1.4725 N   0  0  0  0  0  0  0  0  0  0  0  0
   -4.8649   -1.2403   -2.4274 C   0  0  0  0  0  0  0  0  0  0  0  0
   -6.1608   -1.6484   -2.7261 C   0  0  0  0  0  0  0  0  0  0  0  0
   -6.3532   -2.6342   -3.6772 C   0  0  0  0  0  0  0  0  0  0  0  0
   -5.2387   -3.1808   -4.2998 C   0  0  0  0  0  0  0  0  0  0  0  0
   -3.9812   -2.7280   -3.9543 C   0  0  0  0  0  0  0  0  0  0  0  0
   -3.8281   -1.7822   -3.0471 N   0  0  0  0  0  0  0  0  0  0  0  0
   -7.7408   -3.1047   -4.0293 C   0  0  0  0  0  0  0  0  0  0  0  0
   -4.5101    2.0769    0.5422 N   0  0  0  0  0  0  0  0  0  0  0  0
   -4.9628    2.9623    1.5293 N   0  0  0  0  0  0  0  0  0  0  0  0
   -3.1759    2.0702   -0.0629 C   0  0  0  0  0  0  0  0  0  0  0  0
   -3.1326    3.0779   -1.2133 C   0  0  0  0  0  0  0  0  0  0  0  0
   -1.8312    3.0713   -1.8036 O   0  0  0  0  0  0  0  0  0  0  0  0
   -1.6830    3.9827   -2.8942 C   0  0  0  0  0  0  0  0  0  0  0  0
   -0.2588    3.8911   -3.4455 C   0  0  0  0  0  0  0  0  0  0  0  0
   -7.0605    5.2487    1.7504 H   0  0  0  0  0  0  0  0  0  0  0  0
   -8.4263    4.1612    1.4035 H   0  0  0  0  0  0  0  0  0  0  0  0
   -8.3850    5.0800    2.9274 H   0  0  0  0  0  0  0  0  0  0  0  0
   -6.3874    3.7986    3.6458 H   0  0  0  0  0  0  0  0  0  0  0  0
   -7.7532    2.7111    3.2989 H   0  0  0  0  0  0  0  0  0  0  0  0
  -10.7854    0.2922    0.5526 H   0  0  0  0  0  0  0  0  0  0  0  0
  -10.7476   -1.3894    1.1348 H   0  0  0  0  0  0  0  0  0  0  0  0
   -9.7257   -0.1558    1.9108 H   0  0  0  0  0  0  0  0  0  0  0  0
   -8.4022   -1.8311   -1.6738 H   0  0  0  0  0  0  0  0  0  0  0  0
  -11.3836   -1.4721   -1.1153 H   0  0  0  0  0  0  0  0  0  0  0  0
  -10.4241   -0.5807   -2.3218 H   0  0  0  0  0  0  0  0  0  0  0  0
  -11.6748   -2.4435   -3.3790 H   0  0  0  0  0  0  0  0  0  0  0  0
   -9.9186   -2.7071   -3.4916 H   0  0  0  0  0  0  0  0  0  0  0  0
   -9.7664   -5.2318   -0.9251 H   0  0  0  0  0  0  0  0  0  0  0  0
   -8.8442   -4.2770   -2.1100 H   0  0  0  0  0  0  0  0  0  0  0  0
   -8.4691   -3.4372    0.1921 H   0  0  0  0  0  0  0  0  0  0  0  0
  -10.2199   -3.1725    0.3811 H   0  0  0  0  0  0  0  0  0  0  0  0
  -10.4024   -5.0641   -3.7988 H   0  0  0  0  0  0  0  0  0  0  0  0
  -11.3251   -5.9411   -2.5547 H   0  0  0  0  0  0  0  0  0  0  0  0
  -12.1436   -4.7536   -3.5979 H   0  0  0  0  0  0  0  0  0  0  0  0
   -3.7832    0.1628   -1.3837 H   0  0  0  0  0  0  0  0  0  0  0  0
   -7.0051   -1.2018   -2.2221 H   0  0  0  0  0  0  0  0  0  0  0  0
   -5.3546   -3.9524   -5.0465 H   0  0  0  0  0  0  0  0  0  0  0  0
   -3.1117   -3.1503   -4.4360 H   0  0  0  0  0  0  0  0  0  0  0  0
   -8.1141   -2.5322   -4.8784 H   0  0  0  0  0  0  0  0  0  0  0  0
   -7.7106   -4.1628   -4.2896 H   0  0  0  0  0  0  0  0  0  0  0  0
   -8.4015   -2.9596   -3.1746 H   0  0  0  0  0  0  0  0  0  0  0  0
   -2.4350    2.3441    0.6881 H   0  0  0  0  0  0  0  0  0  0  0  0
   -2.9551    1.0733   -0.4446 H   0  0  0  0  0  0  0  0  0  0  0  0
   -3.8736    2.8040   -1.9644 H   0  0  0  0  0  0  0  0  0  0  0  0
   -3.3534    4.0747   -0.8317 H   0  0  0  0  0  0  0  0  0  0  0  0
   -2.3940    3.7276   -3.6801 H   0  0  0  0  0  0  0  0  0  0  0  0
   -1.8738    4.9983   -2.5474 H   0  0  0  0  0  0  0  0  0  0  0  0
    0.4521    4.1462   -2.6596 H   0  0  0  0  0  0  0  0  0  0  0  0
   -0.0680    2.8755   -3.7923 H   0  0  0  0  0  0  0  0  0  0  0  0
   -0.1457    4.5863   -4.2773 H   0  0  0  0  0  0  0  0  0  0  0  0
  -11.6703   -3.8617   -1.4408 H   0  0  0  0  0  0  0  0  0  0  0  0
  1  2  1  0  0  0  0
  1 34  1  0  0  0  0
  1 35  1  0  0  0  0
  1 36  1  0  0  0  0
  2  3  1  0  0  0  0
  2 37  1  0  0  0  0
  2 38  1  0  0  0  0
  3 28  2  0  0  0  0
  3  4  1  0  0  0  0
  4  9  2  0  0  0  0
  4  5  1  0  0  0  0
  5  6  2  0  0  0  0
  5 27  1  0  0  0  0
  6  7  1  0  0  0  0
  6 19  1  0  0  0  0
  7  8  2  0  0  0  0
  8  9  1  0  0  0  0
  8 10  1  0  0  0  0
 10 11  1  0  0  0  0
 10 12  1  0  0  0  0
 11 39  1  0  0  0  0
 11 40  1  0  0  0  0
 11 41  1  0  0  0  0
 12 17  1  0  0  0  0
 12 13  1  0  0  0  0
 12 42  1  0  0  0  0
 13 14  1  0  0  0  0
 13 43  1  0  0  0  0
 13 44  1  0  0  0  0
 14 15  1  0  0  0  0
 14 45  1  0  0  0  0
 14 46  1  0  0  0  0
 15 16  1  0  0  0  0
 15 18  1  0  0  0  0
 15 70  1  0  0  0  0
 16 17  1  0  0  0  0
 16 47  1  0  0  0  0
 16 48  1  0  0  0  0
 17 49  1  0  0  0  0
 17 50  1  0  0  0  0
 18 51  1  0  0  0  0
 18 52  1  0  0  0  0
 18 53  1  0  0  0  0
 19 20  1  0  0  0  0
 19 54  1  0  0  0  0
 20 25  2  0  0  0  0
 20 21  1  0  0  0  0
 21 22  2  0  0  0  0
 21 55  1  0  0  0  0
 22 23  1  0  0  0  0
 22 26  1  0  0  0  0
 23 24  2  0  0  0  0
 23 56  1  0  0  0  0
 24 25  1  0  0  0  0
 24 57  1  0  0  0  0
 26 58  1  0  0  0  0
 26 59  1  0  0  0  0
 26 60  1  0  0  0  0
 27 28  1  0  0  0  0
 27 29  1  0  0  0  0
 29 30  1  0  0  0  0
 29 61  1  0  0  0  0
 29 62  1  0  0  0  0
 30 31  1  0  0  0  0
 30 63  1  0  0  0  0
 30 64  1  0  0  0  0
 31 32  1  0  0  0  0
 32 33  1  0  0  0  0
 32 65  1  0  0  0  0
 32 66  1  0  0  0  0
 33 67  1  0  0  0  0
 33 68  1  0  0  0  0
 33 69  1  0  0  0  0
M  CHG  1  15   1
M  END
$$$$
CHEMBL1094191
  -OEChem-07121202283D

 71 74  0     0  0  0  0  0  0999 V2000
   -1.5043    2.5408    0.3699 C   0  0  0  0  0  0  0  0  0  0  0  0
   -1.1749    1.1308    0.8642 C   0  0  0  0  0  0  0  0  0  0  0  0
   -0.3466    0.4159   -0.1720 C   0  0  0  0  0  0  0  0  0  0  0  0
   -0.8524   -0.3656   -1.2326 C   0  0  0  0  0  0  0  0  0  0  0  0
    0.2562   -0.8430   -1.9530 C   0  0  0  0  0  0  0  0  0  0  0  0
    0.0274   -1.6566   -3.0716 C   0  0  0  0  0  0  0  0  0  0  0  0
   -1.2254   -1.9429   -3.4049 N   0  0  0  0  0  0  0  0  0  0  0  0
   -2.2487   -1.4736   -2.7002 C   0  0  0  0  0  0  0  0  0  0  0  0
   -2.0830   -0.7047   -1.6404 N   0  0  0  0  0  0  0  0  0  0  0  0
   -3.5368   -1.8028   -3.0920 N   0  0  0  0  0  0  0  0  0  0  0  0
   -4.6778   -1.4119   -2.2605 C   0  0  0  0  0  0  0  0  0  0  0  0
   -3.7572   -2.5417   -4.3377 C   0  0  0  0  0  0  0  0  0  0  0  0
   -4.7611   -1.7842   -5.2116 C   0  0  0  0  0  0  0  0  0  0  0  0
   -5.0470   -2.5998   -6.4743 C   0  0  0  0  0  0  0  0  0  0  0  0
   -5.6069   -3.9046   -6.1021 N   0  3  0  0  0  0  0  0  0  0  0  0
   -4.6219   -4.6657   -5.3242 C   0  0  0  0  0  0  0  0  0  0  0  0
   -4.3196   -3.9296   -4.0172 C   0  0  0  0  0  0  0  0  0  0  0  0
   -5.9519   -4.6527   -7.3183 C   0  0  0  0  0  0  0  0  0  0  0  0
    1.0871   -2.1514   -3.8145 N   0  0  0  0  0  0  0  0  0  0  0  0
    0.8437   -2.8642   -4.9849 C   0  0  0  0  0  0  0  0  0  0  0  0
   -0.4308   -2.8597   -5.5423 C   0  0  0  0  0  0  0  0  0  0  0  0
   -0.6588   -3.5724   -6.7056 C   0  0  0  0  0  0  0  0  0  0  0  0
    0.3997   -4.2683   -7.2746 C   0  0  0  0  0  0  0  0  0  0  0  0
    1.6389   -4.2290   -6.6675 C   0  0  0  0  0  0  0  0  0  0  0  0
    1.8285   -3.5361   -5.5607 N   0  3  0  0  0  0  0  0  0  0  0  0
   -2.0251   -3.5935   -7.3410 C   0  0  0  0  0  0  0  0  0  0  0  0
    1.3737   -0.3532   -1.3293 N   0  0  0  0  0  0  0  0  0  0  0  0
    0.9554    0.4221   -0.2398 N   0  0  0  0  0  0  0  0  0  0  0  0
    2.7612   -0.5932   -1.7338 C   0  0  0  0  0  0  0  0  0  0  0  0
    3.2457    0.5663   -2.6066 C   0  0  0  0  0  0  0  0  0  0  0  0
    4.5991    0.3323   -3.0012 O   0  0  0  0  0  0  0  0  0  0  0  0
    5.1510    1.3620   -3.8240 C   0  0  0  0  0  0  0  0  0  0  0  0
    6.5953    1.0081   -4.1839 C   0  0  0  0  0  0  0  0  0  0  0  0
   -0.5792    3.0919    0.2009 H   0  0  0  0  0  0  0  0  0  0  0  0
   -2.0649    2.4771   -0.5627 H   0  0  0  0  0  0  0  0  0  0  0  0
   -2.1035    3.0579    1.1194 H   0  0  0  0  0  0  0  0  0  0  0  0
   -0.6144    1.1945    1.7969 H   0  0  0  0  0  0  0  0  0  0  0  0
   -2.1000    0.5797    1.0333 H   0  0  0  0  0  0  0  0  0  0  0  0
   -5.0313   -0.4277   -2.5680 H   0  0  0  0  0  0  0  0  0  0  0  0
   -5.4804   -2.1397   -2.3795 H   0  0  0  0  0  0  0  0  0  0  0  0
   -4.3708   -1.3774   -1.2152 H   0  0  0  0  0  0  0  0  0  0  0  0
   -2.8128   -2.6456   -4.8718 H   0  0  0  0  0  0  0  0  0  0  0  0
   -5.6874   -1.6358   -4.6566 H   0  0  0  0  0  0  0  0  0  0  0  0
   -4.3437   -0.8165   -5.4900 H   0  0  0  0  0  0  0  0  0  0  0  0
   -5.7612   -2.0633   -7.0989 H   0  0  0  0  0  0  0  0  0  0  0  0
   -4.1201   -2.7475   -7.0286 H   0  0  0  0  0  0  0  0  0  0  0  0
   -5.0224   -5.6543   -5.0996 H   0  0  0  0  0  0  0  0  0  0  0  0
   -3.7041   -4.7693   -5.9030 H   0  0  0  0  0  0  0  0  0  0  0  0
   -3.5868   -4.4953   -3.4419 H   0  0  0  0  0  0  0  0  0  0  0  0
   -5.2368   -3.8256   -3.4374 H   0  0  0  0  0  0  0  0  0  0  0  0
   -5.0557   -4.7999   -7.9209 H   0  0  0  0  0  0  0  0  0  0  0  0
   -6.3679   -5.6219   -7.0430 H   0  0  0  0  0  0  0  0  0  0  0  0
   -6.6883   -4.0915   -7.8935 H   0  0  0  0  0  0  0  0  0  0  0  0
    1.9987   -2.0011   -3.5189 H   0  0  0  0  0  0  0  0  0  0  0  0
   -1.2315   -2.3075   -5.0729 H   0  0  0  0  0  0  0  0  0  0  0  0
    0.2549   -4.8348   -8.1826 H   0  0  0  0  0  0  0  0  0  0  0  0
    2.4650   -4.7687   -7.1065 H   0  0  0  0  0  0  0  0  0  0  0  0
   -2.0918   -2.8004   -8.0858 H   0  0  0  0  0  0  0  0  0  0  0  0
   -2.1872   -4.5582   -7.8220 H   0  0  0  0  0  0  0  0  0  0  0  0
   -2.7845   -3.4373   -6.5749 H   0  0  0  0  0  0  0  0  0  0  0  0
    3.3904   -0.6680   -0.8470 H   0  0  0  0  0  0  0  0  0  0  0  0
    2.8190   -1.5228   -2.2999 H   0  0  0  0  0  0  0  0  0  0  0  0
    2.6165    0.6412   -3.4934 H   0  0  0  0  0  0  0  0  0  0  0  0
    3.1879    1.4960   -2.0405 H   0  0  0  0  0  0  0  0  0  0  0  0
    4.5612    1.4534   -4.7361 H   0  0  0  0  0  0  0  0  0  0  0  0
    5.1327    2.3082   -3.2832 H   0  0  0  0  0  0  0  0  0  0  0  0
    7.1850    0.9167   -3.2718 H   0  0  0  0  0  0  0  0  0  0  0  0
    6.6136    0.0620   -4.7247 H   0  0  0  0  0  0  0  0  0  0  0  0
    7.0163    1.7936   -4.8115 H   0  0  0  0  0  0  0  0  0  0  0  0
   -6.4383   -3.7668   -5.5472 H   0  0  0  0  0  0  0  0  0  0  0  0
    2.7103   -3.5219   -5.1566 H   0  0  0  0  0  0  0  0  0  0  0  0
  1  2  1  0  0  0  0
  1 34  1  0  0  0  0
  1 35  1  0  0  0  0
  1 36  1  0  0  0  0
  2  3  1  0  0  0  0
  2 37  1  0  0  0  0
  2 38  1  0  0  0  0
  3 28  2  0  0  0  0
  3  4  1  0  0  0  0
  4  9  2  0  0  0  0
  4  5  1  0  0  0  0
  5  6  2  0  0  0  0
  5 27  1  0  0  0  0
  6  7  1  0  0  0  0
  6 19  1  0  0  0  0
  7  8  2  0  0  0  0
  8  9  1  0  0  0  0
  8 10  1  0  0  0  0
 10 11  1  0  0  0  0
 10 12  1  0  0  0  0
 11 39  1  0  0  0  0
 11 40  1  0  0  0  0
 11 41  1  0  0  0  0
 12 17  1  0  0  0  0
 12 13  1  0  0  0  0
 12 42  1  0  0  0  0
 13 14  1  0  0  0  0
 13 43  1  0  0  0  0
 13 44  1  0  0  0  0
 14 15  1  0  0  0  0
 14 45  1  0  0  0  0
 14 46  1  0  0  0  0
 15 16  1  0  0  0  0
 15 18  1  0  0  0  0
 15 70  1  0  0  0  0
 16 17  1  0  0  0  0
 16 47  1  0  0  0  0
 16 48  1  0  0  0  0
 17 49  1  0  0  0  0
 17 50  1  0  0  0  0
 18 51  1  0  0  0  0
 18 52  1  0  0  0  0
 18 53  1  0  0  0  0
 19 20  1  0  0  0  0
 19 54  1  0  0  0  0
 20 25  2  0  0  0  0
 20 21  1  0  0  0  0
 21 22  2  0  0  0  0
 21 55  1  0  0  0  0
 22 23  1  0  0  0  0
 22 26  1  0  0  0  0
 23 24  2  0  0  0  0
 23 56  1  0  0  0  0
 24 25  1  0  0  0  0
 24 57  1  0  0  0  0
 25 71  1  0  0  0  0
 26 58  1  0  0  0  0
 26 59  1  0  0  0  0
 26 60  1  0  0  0  0
 27 28  1  0  0  0  0
 27 29  1  0  0  0  0
 29 30  1  0  0  0  0
 29 61  1  0  0  0  0
 29 62  1  0  0  0  0
 30 31  1  0  0  0  0
 30 63  1  0  0  0  0
 30 64  1  0  0  0  0
 31 32  1  0  0  0  0
 32 33  1  0  0  0  0
 32 65  1  0  0  0  0
 32 66  1  0  0  0  0
 33 67  1  0  0  0  0
 33 68  1  0  0  0  0
 33 69  1  0  0  0  0
M  CHG  2  15   1  25   1
M  END
$$$$
CHEMBL28676
  -OEChem-07121202283D

 73 79  0     0  0  0  0  0  0999 V2000
    0.4403    1.9595   -0.6701 C   0  0  0  0  0  0  0  0  0  0  0  0
    0.4437    0.5072   -0.4773 N   0  0  0  0  0  0  0  0  0  0  0  0
   -0.0395   -0.2884   -1.4477 C   0  0  0  0  0  0  0  0  0  0  0  0
   -0.4750    0.1993   -2.4755 O   0  0  0  0  0  0  0  0  0  0  0  0
   -0.0412   -1.6879   -1.2745 C   0  0  0  0  0  0  0  0  0  0  0  0
    0.4546   -2.2292   -0.0948 C   0  0  0  0  0  0  0  0  0  0  0  0
    0.3402   -3.5550   -0.1805 N   0  0  0  0  0  0  0  0  0  0  0  0
   -0.1949   -3.8841   -1.3393 C   0  0  0  0  0  0  0  0  0  0  0  0
   -0.4492   -2.7542   -2.0543 N   0  0  0  0  0  0  0  0  0  0  0  0
   -1.0416   -2.6818   -3.3923 C   0  0  0  0  0  0  0  0  0  0  0  0
   -2.5418   -2.7738   -3.2830 C   0  0  0  0  0  0  0  0  0  0  0  0
   -3.1707   -3.9977   -3.4155 C   0  0  0  0  0  0  0  0  0  0  0  0
   -4.5468   -4.0821   -3.3153 C   0  0  0  0  0  0  0  0  0  0  0  0
   -5.2940   -2.9427   -3.0822 C   0  0  0  0  0  0  0  0  0  0  0  0
   -4.6651   -1.7189   -2.9489 C   0  0  0  0  0  0  0  0  0  0  0  0
   -3.2886   -1.6352   -3.0448 C   0  0  0  0  0  0  0  0  0  0  0  0
   -0.4741   -5.2635   -1.7916 C   0  0  0  0  0  0  0  0  0  0  0  0
   -0.3204   -5.6049   -3.1362 C   0  0  0  0  0  0  0  0  0  0  0  0
   -0.5821   -6.8941   -3.5516 C   0  0  0  0  0  0  0  0  0  0  0  0
   -0.9966   -7.8477   -2.6387 C   0  0  0  0  0  0  0  0  0  0  0  0
   -1.1514   -7.5157   -1.3045 C   0  0  0  0  0  0  0  0  0  0  0  0
   -0.8870   -6.2317   -0.8748 C   0  0  0  0  0  0  0  0  0  0  0  0
   -1.2812   -9.2539   -3.0998 C   0  0  0  0  0  0  0  0  0  0  0  0
   -2.7390   -9.6051   -2.7957 C   0  0  0  0  0  0  0  0  0  0  0  0
   -3.0279  -11.0328   -3.2638 C   0  0  0  0  0  0  0  0  0  0  0  0
   -2.1047  -12.0070   -2.5293 C   0  0  0  0  0  0  0  0  0  0  0  0
   -0.6469  -11.6558   -2.8334 C   0  0  0  0  0  0  0  0  0  0  0  0
   -0.3580  -10.2281   -2.3653 C   0  0  0  0  0  0  0  0  0  0  0  0
    0.9439   -1.3810    0.8878 N   0  0  0  0  0  0  0  0  0  0  0  0
    0.9502   -0.0214    0.6995 C   0  0  0  0  0  0  0  0  0  0  0  0
    1.4586    0.6337    1.7118 N   0  3  0  0  0  0  0  0  0  0  0  0
    1.8749   -0.2953    2.7514 C   0  0  0  0  0  0  0  0  0  0  0  0
    1.5165   -1.6825    2.2136 C   0  0  0  0  0  0  0  0  0  0  0  0
    1.1545   -0.0234    4.0829 C   0  0  0  0  0  0  0  0  0  0  0  0
    2.0376    1.0753    4.7295 C   0  0  0  0  0  0  0  0  0  0  0  0
    3.4789    0.6874    4.3364 C   0  0  0  0  0  0  0  0  0  0  0  0
    3.3701   -0.1777    3.0655 C   0  0  0  0  0  0  0  0  0  0  0  0
    1.3730    2.2653   -1.1441 H   0  0  0  0  0  0  0  0  0  0  0  0
   -0.3993    2.2396   -1.3061 H   0  0  0  0  0  0  0  0  0  0  0  0
    0.3448    2.4541    0.2965 H   0  0  0  0  0  0  0  0  0  0  0  0
   -0.7687   -1.7357   -3.8598 H   0  0  0  0  0  0  0  0  0  0  0  0
   -0.6702   -3.5075   -3.9992 H   0  0  0  0  0  0  0  0  0  0  0  0
   -2.5869   -4.8879   -3.5976 H   0  0  0  0  0  0  0  0  0  0  0  0
   -5.0382   -5.0382   -3.4195 H   0  0  0  0  0  0  0  0  0  0  0  0
   -6.3692   -3.0085   -3.0046 H   0  0  0  0  0  0  0  0  0  0  0  0
   -5.2489   -0.8287   -2.7671 H   0  0  0  0  0  0  0  0  0  0  0  0
   -2.7969   -0.6797   -2.9369 H   0  0  0  0  0  0  0  0  0  0  0  0
    0.0024   -4.8614   -3.8499 H   0  0  0  0  0  0  0  0  0  0  0  0
   -0.4636   -7.1596   -4.5918 H   0  0  0  0  0  0  0  0  0  0  0  0
   -1.4756   -8.2646   -0.5971 H   0  0  0  0  0  0  0  0  0  0  0  0
   -1.0036   -5.9751    0.1678 H   0  0  0  0  0  0  0  0  0  0  0  0
   -1.1063   -9.3267   -4.1732 H   0  0  0  0  0  0  0  0  0  0  0  0
   -2.9139   -9.5323   -1.7223 H   0  0  0  0  0  0  0  0  0  0  0  0
   -3.3967   -8.9111   -3.3189 H   0  0  0  0  0  0  0  0  0  0  0  0
   -4.0665  -11.2830   -3.0471 H   0  0  0  0  0  0  0  0  0  0  0  0
   -2.8530  -11.1056   -4.3372 H   0  0  0  0  0  0  0  0  0  0  0  0
   -2.2797  -11.9342   -1.4559 H   0  0  0  0  0  0  0  0  0  0  0  0
   -2.3105  -13.0241   -2.8628 H   0  0  0  0  0  0  0  0  0  0  0  0
    0.0108  -12.3498   -2.3102 H   0  0  0  0  0  0  0  0  0  0  0  0
   -0.4720  -11.7286   -3.9068 H   0  0  0  0  0  0  0  0  0  0  0  0
    0.6805   -9.9779   -2.5820 H   0  0  0  0  0  0  0  0  0  0  0  0
   -0.5330  -10.1553   -1.2919 H   0  0  0  0  0  0  0  0  0  0  0  0
    0.7802   -2.1740    2.8494 H   0  0  0  0  0  0  0  0  0  0  0  0
    2.4139   -2.2935    2.1166 H   0  0  0  0  0  0  0  0  0  0  0  0
    0.1443    0.3464    3.9073 H   0  0  0  0  0  0  0  0  0  0  0  0
    1.1369   -0.9197    4.7029 H   0  0  0  0  0  0  0  0  0  0  0  0
    1.7832    2.0553    4.3258 H   0  0  0  0  0  0  0  0  0  0  0  0
    1.9231    1.0673    5.8134 H   0  0  0  0  0  0  0  0  0  0  0  0
    4.0636    1.5836    4.1292 H   0  0  0  0  0  0  0  0  0  0  0  0
    3.9438    0.1150    5.1391 H   0  0  0  0  0  0  0  0  0  0  0  0
    3.7931   -1.1656    3.2478 H   0  0  0  0  0  0  0  0  0  0  0  0
    3.8895    0.3057    2.2381 H   0  0  0  0  0  0  0  0  0  0  0  0
    1.5454    1.5985    1.7619 H   0  0  0  0  0  0  0  0  0  0  0  0
  1  2  1  0  0  0  0
  1 38  1  0  0  0  0
  1 39  1  0  0  0  0
  1 40  1  0  0  0  0
  2 30  1  0  0  0  0
  2  3  1  0  0  0  0
  3  4  2  0  0  0  0
  3  5  1  0  0  0  0
  5  9  1  0  0  0  0
  5  6  2  0  0  0  0
  6  7  1  0  0  0  0
  6 29  1  0  0  0  0
  7  8  2  0  0  0  0
  8  9  1  0  0  0  0
  8 17  1  0  0  0  0
  9 10  1  0  0  0  0
 10 11  1  0  0  0  0
 10 41  1  0  0  0  0
 10 42  1  0  0  0  0
 11 16  2  0  0  0  0
 11 12  1  0  0  0  0
 12 13  2  0  0  0  0
 12 43  1  0  0  0  0
 13 14  1  0  0  0  0
 13 44  1  0  0  0  0
 14 15  2  0  0  0  0
 14 45  1  0  0  0  0
 15 16  1  0  0  0  0
 15 46  1  0  0  0  0
 16 47  1  0  0  0  0
 17 22  2  0  0  0  0
 17 18  1  0  0  0  0
 18 19  2  0  0  0  0
 18 48  1  0  0  0  0
 19 20  1  0  0  0  0
 19 49  1  0  0  0  0
 20 21  2  0  0  0  0
 20 23  1  0  0  0  0
 21 22  1  0  0  0  0
 21 50  1  0  0  0  0
 22 51  1  0  0  0  0
 23 28  1  0  0  0  0
 23 24  1  0  0  0  0
 23 52  1  0  0  0  0
 24 25  1  0  0  0  0
 24 53  1  0  0  0  0
 24 54  1  0  0  0  0
 25 26  1  0  0  0  0
 25 55  1  0  0  0  0
 25 56  1  0  0  0  0
 26 27  1  0  0  0  0
 26 57  1  0  0  0  0
 26 58  1  0  0  0  0
 27 28  1  0  0  0  0
 27 59  1  0  0  0  0
 27 60  1  0  0  0  0
 28 61  1  0  0  0  0
 28 62  1  0  0  0  0
 29 33  1  0  0  0  0
 29 30  1  0  0  0  0
 30 31  2  0  0  0  0
 31 32  1  0  0  0  0
 31 73  1  0  0  0  0
 32 37  1  0  0  0  0
 32 33  1  0  0  0  0
 32 34  1  0  0  0  0
 33 63  1  0  0  0  0
 33 64  1  0  0  0  0
 34 35  1  0  0  0  0
 34 65  1  0  0  0  0
 34 66  1  0  0  0  0
 35 36  1  0  0  0  0
 35 67  1  0  0  0  0
 35 68  1  0  0  0  0
 36 37  1  0  0  0  0
 36 69  1  0  0  0  0
 36 70  1  0  0  0  0
 37 71  1  0  0  0  0
 37 72  1  0  0  0  0
M  CHG  1  31   1
M  END
$$$$
CHEMBL130612
  -OEChem-07121202283D

 68 73  0     1  0  0  0  0  0999 V2000
   -0.0173    1.4248    0.0099 C   0  0  0  0  0  0  0  0  0  0  0  0
    0.0021   -0.0041    0.0020 O   0  0  0  0  0  0  0  0  0  0  0  0
    0.6062   -0.6075   -1.0563 C   0  0  0  0  0  0  0  0  0  0  0  0
    1.1723    0.1620   -2.0613 C   0  0  0  0  0  0  0  0  0  0  0  0
    1.7863   -0.4467   -3.1371 C   0  0  0  0  0  0  0  0  0  0  0  0
    1.8388   -1.8371   -3.2150 C   0  0  0  0  0  0  0  0  0  0  0  0
    1.2705   -2.6115   -2.2054 C   0  0  0  0  0  0  0  0  0  0  0  0
    0.6603   -1.9970   -1.1264 C   0  0  0  0  0  0  0  0  0  0  0  0
    0.1089   -2.7500   -0.1372 O   0  0  0  0  0  0  0  0  0  0  0  0
    0.2012   -4.1694   -0.2742 C   0  0  0  0  0  0  0  0  0  0  0  0
    2.4983   -2.4921   -4.3715 C   0  0  0  0  0  0  0  0  0  0  0  0
    2.5552   -3.8847   -4.4693 C   0  0  0  0  0  0  0  0  0  0  0  0
    3.1509   -4.4305   -5.5149 N   0  0  0  0  0  0  0  0  0  0  0  0
    3.6891   -3.6755   -6.4617 C   0  0  0  0  0  0  0  0  0  0  0  0
    3.6557   -2.3520   -6.4041 N   0  0  0  0  0  0  0  0  0  0  0  0
    3.0730   -1.7318   -5.3932 C   0  0  0  0  0  0  0  0  0  0  0  0
    4.3039   -4.2864   -7.5406 N   0  0  0  0  0  0  0  0  0  0  0  0
    4.4335   -5.7276   -7.7790 C   0  0  0  0  0  0  0  0  0  0  0  0
    5.1762   -5.9068   -9.0799 C   0  0  0  0  0  0  0  0  0  0  0  0
    5.5575   -7.0914   -9.7576 C   0  0  0  0  0  0  0  0  0  0  0  0
    6.2849   -6.9570  -11.0302 C   0  0  0  0  0  0  0  0  0  0  0  0
    6.6953   -8.0726  -11.7595 C   0  0  0  0  0  0  0  0  0  0  0  0
    7.3681   -7.9010  -12.9370 C   0  0  0  0  0  0  0  0  0  0  0  0
    7.6453   -6.6261  -13.4112 C   0  0  0  0  0  0  0  0  0  0  0  0
    7.2491   -5.5113  -12.7058 C   0  0  0  0  0  0  0  0  0  0  0  0
    6.5621   -5.6629  -11.5043 C   0  0  0  0  0  0  0  0  0  0  0  0
    6.1512   -4.5728  -10.7754 N   0  0  0  0  0  0  0  0  0  0  0  0
    5.4780   -4.6988   -9.5980 C   0  0  0  0  0  0  0  0  0  0  0  0
    4.9499   -3.6220   -8.6766 C   0  0  2  0  0  0  0  0  0  0  0  0
    6.0906   -2.7672   -8.1874 C   0  0  0  0  0  0  0  0  0  0  0  0
    6.8984   -3.2174   -7.1597 C   0  0  0  0  0  0  0  0  0  0  0  0
    7.9460   -2.4370   -6.7073 C   0  0  0  0  0  0  0  0  0  0  0  0
    8.1886   -1.2009   -7.2845 C   0  0  0  0  0  0  0  0  0  0  0  0
    7.3758   -0.7480   -8.3192 C   0  0  0  0  0  0  0  0  0  0  0  0
    6.3303   -1.5372   -8.7711 C   0  0  0  0  0  0  0  0  0  0  0  0
    7.6098    0.4645   -8.8888 O   0  0  0  0  0  0  0  0  0  0  0  0
    6.7352    0.8645   -9.9458 C   0  0  0  0  0  0  0  0  0  0  0  0
    9.2185   -0.4317   -6.8404 O   0  0  0  0  0  0  0  0  0  0  0  0
   10.0105   -0.9604   -5.7749 C   0  0  0  0  0  0  0  0  0  0  0  0
    5.2911   -8.1903   -9.2995 O   0  0  0  0  0  0  0  0  0  0  0  0
    1.0053    1.8021    0.0021 H   0  0  0  0  0  0  0  0  0  0  0  0
   -0.5445    1.7859   -0.8732 H   0  0  0  0  0  0  0  0  0  0  0  0
   -0.5275    1.7763    0.9067 H   0  0  0  0  0  0  0  0  0  0  0  0
    1.1325    1.2396   -2.0023 H   0  0  0  0  0  0  0  0  0  0  0  0
    2.2260    0.1547   -3.9189 H   0  0  0  0  0  0  0  0  0  0  0  0
    1.3093   -3.6892   -2.2633 H   0  0  0  0  0  0  0  0  0  0  0  0
   -0.2767   -4.6488    0.5801 H   0  0  0  0  0  0  0  0  0  0  0  0
   -0.2993   -4.4792   -1.1916 H   0  0  0  0  0  0  0  0  0  0  0  0
    1.2501   -4.4630   -0.3158 H   0  0  0  0  0  0  0  0  0  0  0  0
    2.1189   -4.5061   -3.7012 H   0  0  0  0  0  0  0  0  0  0  0  0
    3.0450   -0.6529   -5.3552 H   0  0  0  0  0  0  0  0  0  0  0  0
    4.9946   -6.1883   -6.9660 H   0  0  0  0  0  0  0  0  0  0  0  0
    3.4449   -6.1811   -7.8518 H   0  0  0  0  0  0  0  0  0  0  0  0
    6.4830   -9.0670  -11.3956 H   0  0  0  0  0  0  0  0  0  0  0  0
    7.6869   -8.7641  -13.5027 H   0  0  0  0  0  0  0  0  0  0  0  0
    8.1778   -6.5070  -14.3433 H   0  0  0  0  0  0  0  0  0  0  0  0
    7.4697   -4.5238  -13.0835 H   0  0  0  0  0  0  0  0  0  0  0  0
    4.2239   -3.0041   -9.2050 H   0  0  0  0  0  0  0  0  0  0  0  0
    6.7104   -4.1807   -6.7090 H   0  0  0  0  0  0  0  0  0  0  0  0
    8.5751   -2.7907   -5.9039 H   0  0  0  0  0  0  0  0  0  0  0  0
    5.7003   -1.1897   -9.5765 H   0  0  0  0  0  0  0  0  0  0  0  0
    7.0318    1.8479  -10.3103 H   0  0  0  0  0  0  0  0  0  0  0  0
    6.7949    0.1420  -10.7598 H   0  0  0  0  0  0  0  0  0  0  0  0
    5.7117    0.9085   -9.5734 H   0  0  0  0  0  0  0  0  0  0  0  0
    9.3784   -1.1347   -4.9042 H   0  0  0  0  0  0  0  0  0  0  0  0
   10.4622   -1.9011   -6.0901 H   0  0  0  0  0  0  0  0  0  0  0  0
   10.7951   -0.2488   -5.5178 H   0  0  0  0  0  0  0  0  0  0  0  0
    6.3471   -3.6839  -11.1106 H   0  0  0  0  0  0  0  0  0  0  0  0
  1  2  1  0  0  0  0
  1 41  1  0  0  0  0
  1 42  1  0  0  0  0
  1 43  1  0  0  0  0
  2  3  1  0  0  0  0
  3  8  2  0  0  0  0
  3  4  1  0  0  0  0
  4  5  2  0  0  0  0
  4 44  1  0  0  0  0
  5  6  1  0  0  0  0
  5 45  1  0  0  0  0
  6  7  2  0  0  0  0
  6 11  1  0  0  0  0
  7  8  1  0  0  0  0
  7 46  1  0  0  0  0
  8  9  1  0  0  0  0
  9 10  1  0  0  0  0
 10 47  1  0  0  0  0
 10 48  1  0  0  0  0
 10 49  1  0  0  0  0
 11 16  2  0  0  0  0
 11 12  1  0  0  0  0
 12 13  2  0  0  0  0
 12 50  1  0  0  0  0
 13 14  1  0  0  0  0
 14 15  2  0  0  0  0
 14 17  1  0  0  0  0
 15 16  1  0  0  0  0
 16 51  1  0  0  0  0
 17 29  1  0  0  0  0
 17 18  1  0  0  0  0
 18 19  1  0  0  0  0
 18 52  1  0  0  0  0
 18 53  1  0  0  0  0
 19 28  2  0  0  0  0
 19 20  1  0  0  0  0
 20 21  1  0  0  0  0
 20 40  2  0  0  0  0
 21 26  2  0  0  0  0
 21 22  1  0  0  0  0
 22 23  2  0  0  0  0
 22 54  1  0  0  0  0
 23 24  1  0  0  0  0
 23 55  1  0  0  0  0
 24 25  2  0  0  0  0
 24 56  1  0  0  0  0
 25 26  1  0  0  0  0
 25 57  1  0  0  0  0
 26 27  1  0  0  0  0
 27 28  1  0  0  0  0
 27 68  1  0  0  0  0
 28 29  1  0  0  0  0
 29 30  1  0  0  0  0
 29 58  1  0  0  0  0
 30 35  2  0  0  0  0
 30 31  1  0  0  0  0
 31 32  2  0  0  0  0
 31 59  1  0  0  0  0
 32 33  1  0  0  0  0
 32 60  1  0  0  0  0
 33 34  2  0  0  0  0
 33 38  1  0  0  0  0
 34 35  1  0  0  0  0
 34 36  1  0  0  0  0
 35 61  1  0  0  0  0
 36 37  1  0  0  0  0
 37 62  1  0  0  0  0
 37 63  1  0  0  0  0
 37 64  1  0  0  0  0
 38 39  1  0  0  0  0
 39 65  1  0  0  0  0
 39 66  1  0  0  0  0
 39 67  1  0  0  0  0
M  END
$$$$
CHEMBL130612
  -OEChem-07121202283D

 68 73  0     1  0  0  0  0  0999 V2000
   -0.0173    1.4248    0.0099 C   0  0  0  0  0  0  0  0  0  0  0  0
    0.0021   -0.0041    0.0020 O   0  0  0  0  0  0  0  0  0  0  0  0
    0.6062   -0.6075   -1.0563 C   0  0  0  0  0  0  0  0  0  0  0  0
    1.1723    0.1620   -2.0613 C   0  0  0  0  0  0  0  0  0  0  0  0
    1.7863   -0.4467   -3.1371 C   0  0  0  0  0  0  0  0  0  0  0  0
    1.8388   -1.8371   -3.2150 C   0  0  0  0  0  0  0  0  0  0  0  0
    1.2705   -2.6115   -2.2054 C   0  0  0  0  0  0  0  0  0  0  0  0
    0.6603   -1.9970   -1.1264 C   0  0  0  0  0  0  0  0  0  0  0  0
    0.1089   -2.7500   -0.1372 O   0  0  0  0  0  0  0  0  0  0  0  0
    0.2012   -4.1694   -0.2742 C   0  0  0  0  0  0  0  0  0  0  0  0
    2.4983   -2.4921   -4.3715 C   0  0  0  0  0  0  0  0  0  0  0  0
    2.5552   -3.8847   -4.4693 C   0  0  0  0  0  0  0  0  0  0  0  0
    3.1509   -4.4305   -5.5149 N   0  0  0  0  0  0  0  0  0  0  0  0
    3.6891   -3.6755   -6.4617 C   0  0  0  0  0  0  0  0  0  0  0  0
    3.6557   -2.3520   -6.4041 N   0  0  0  0  0  0  0  0  0  0  0  0
    3.0730   -1.7318   -5.3932 C   0  0  0  0  0  0  0  0  0  0  0  0
    4.3039   -4.2864   -7.5406 N   0  0  0  0  0  0  0  0  0  0  0  0
    4.4335   -5.7276   -7.7790 C   0  0  0  0  0  0  0  0  0  0  0  0
    5.1762   -5.9068   -9.0799 C   0  0  0  0  0  0  0  0  0  0  0  0
    5.5575   -7.0914   -9.7576 C   0  0  0  0  0  0  0  0  0  0  0  0
    6.2849   -6.9570  -11.0302 C   0  0  0  0  0  0  0  0  0  0  0  0
    6.6953   -8.0726  -11.7595 C   0  0  0  0  0  0  0  0  0  0  0  0
    7.3681   -7.9010  -12.9370 C   0  0  0  0  0  0  0  0  0  0  0  0
    7.6453   -6.6261  -13.4112 C   0  0  0  0  0  0  0  0  0  0  0  0
    7.2491   -5.5113  -12.7058 C   0  0  0  0  0  0  0  0  0  0  0  0
    6.5621   -5.6629  -11.5043 C   0  0  0  0  0  0  0  0  0  0  0  0
    6.1512   -4.5728  -10.7754 N   0  0  0  0  0  0  0  0  0  0  0  0
    5.4780   -4.6988   -9.5980 C   0  0  0  0  0  0  0  0  0  0  0  0
    4.9499   -3.6220   -8.6766 C   0  0  1  0  0  0  0  0  0  0  0  0
    3.9462   -2.7677   -9.4072 C   0  0  0  0  0  0  0  0  0  0  0  0
    2.6472   -3.2134   -9.5663 C   0  0  0  0  0  0  0  0  0  0  0  0
    1.7227   -2.4335  -10.2357 C   0  0  0  0  0  0  0  0  0  0  0  0
    2.0971   -1.2019  -10.7486 C   0  0  0  0  0  0  0  0  0  0  0  0
    3.4045   -0.7531  -10.5881 C   0  0  0  0  0  0  0  0  0  0  0  0
    4.3249   -1.5377   -9.9118 C   0  0  0  0  0  0  0  0  0  0  0  0
    3.7768    0.4549  -11.0896 O   0  0  0  0  0  0  0  0  0  0  0  0
    5.1349    0.8507  -10.8872 C   0  0  0  0  0  0  0  0  0  0  0  0
    1.1890   -0.4336  -11.4078 O   0  0  0  0  0  0  0  0  0  0  0  0
   -0.1341   -0.9583  -11.5351 C   0  0  0  0  0  0  0  0  0  0  0  0
    5.2911   -8.1903   -9.2995 O   0  0  0  0  0  0  0  0  0  0  0  0
    1.0053    1.8021    0.0021 H   0  0  0  0  0  0  0  0  0  0  0  0
   -0.5445    1.7859   -0.8732 H   0  0  0  0  0  0  0  0  0  0  0  0
   -0.5275    1.7763    0.9067 H   0  0  0  0  0  0  0  0  0  0  0  0
    1.1325    1.2396   -2.0023 H   0  0  0  0  0  0  0  0  0  0  0  0
    2.2260    0.1547   -3.9189 H   0  0  0  0  0  0  0  0  0  0  0  0
    1.3093   -3.6892   -2.2633 H   0  0  0  0  0  0  0  0  0  0  0  0
   -0.2767   -4.6488    0.5801 H   0  0  0  0  0  0  0  0  0  0  0  0
   -0.2993   -4.4792   -1.1916 H   0  0  0  0  0  0  0  0  0  0  0  0
    1.2501   -4.4630   -0.3158 H   0  0  0  0  0  0  0  0  0  0  0  0
    2.1189   -4.5061   -3.7012 H   0  0  0  0  0  0  0  0  0  0  0  0
    3.0450   -0.6529   -5.3552 H   0  0  0  0  0  0  0  0  0  0  0  0
    4.9946   -6.1883   -6.9660 H   0  0  0  0  0  0  0  0  0  0  0  0
    3.4449   -6.1811   -7.8518 H   0  0  0  0  0  0  0  0  0  0  0  0
    6.4830   -9.0670  -11.3956 H   0  0  0  0  0  0  0  0  0  0  0  0
    7.6869   -8.7641  -13.5027 H   0  0  0  0  0  0  0  0  0  0  0  0
    8.1778   -6.5070  -14.3433 H   0  0  0  0  0  0  0  0  0  0  0  0
    7.4697   -4.5238  -13.0835 H   0  0  0  0  0  0  0  0  0  0  0  0
    5.7749   -3.0038   -8.3227 H   0  0  0  0  0  0  0  0  0  0  0  0
    2.3541   -4.1731   -9.1670 H   0  0  0  0  0  0  0  0  0  0  0  0
    0.7087   -2.7842  -10.3593 H   0  0  0  0  0  0  0  0  0  0  0  0
    5.3393   -1.1901   -9.7826 H   0  0  0  0  0  0  0  0  0  0  0  0
    5.2983    1.8308  -11.3353 H   0  0  0  0  0  0  0  0  0  0  0  0
    5.3434    0.9005   -9.8185 H   0  0  0  0  0  0  0  0  0  0  0  0
    5.7988    0.1228  -11.3535 H   0  0  0  0  0  0  0  0  0  0  0  0
   -0.0997   -1.9025  -12.0786 H   0  0  0  0  0  0  0  0  0  0  0  0
   -0.5558   -1.1247  -10.5439 H   0  0  0  0  0  0  0  0  0  0  0  0
   -0.7558   -0.2479  -12.0799 H   0  0  0  0  0  0  0  0  0  0  0  0
    6.3471   -3.6839  -11.1106 H   0  0  0  0  0  0  0  0  0  0  0  0
  1  2  1  0  0  0  0
  1 41  1  0  0  0  0
  1 42  1  0  0  0  0
  1 43  1  0  0  0  0
  2  3  1  0  0  0  0
  3  8  2  0  0  0  0
  3  4  1  0  0  0  0
  4  5  2  0  0  0  0
  4 44  1  0  0  0  0
  5  6  1  0  0  0  0
  5 45  1  0  0  0  0
  6  7  2  0  0  0  0
  6 11  1  0  0  0  0
  7  8  1  0  0  0  0
  7 46  1  0  0  0  0
  8  9  1  0  0  0  0
  9 10  1  0  0  0  0
 10 47  1  0  0  0  0
 10 48  1  0  0  0  0
 10 49  1  0  0  0  0
 11 16  2  0  0  0  0
 11 12  1  0  0  0  0
 12 13  2  0  0  0  0
 12 50  1  0  0  0  0
 13 14  1  0  0  0  0
 14 15  2  0  0  0  0
 14 17  1  0  0  0  0
 15 16  1  0  0  0  0
 16 51  1  0  0  0  0
 17 29  1  0  0  0  0
 17 18  1  0  0  0  0
 18 19  1  0  0  0  0
 18 52  1  0  0  0  0
 18 53  1  0  0  0  0
 19 28  2  0  0  0  0
 19 20  1  0  0  0  0
 20 21  1  0  0  0  0
 20 40  2  0  0  0  0
 21 26  2  0  0  0  0
 21 22  1  0  0  0  0
 22 23  2  0  0  0  0
 22 54  1  0  0  0  0
 23 24  1  0  0  0  0
 23 55  1  0  0  0  0
 24 25  2  0  0  0  0
 24 56  1  0  0  0  0
 25 26  1  0  0  0  0
 25 57  1  0  0  0  0
 26 27  1  0  0  0  0
 27 28  1  0  0  0  0
 27 68  1  0  0  0  0
 28 29  1  0  0  0  0
 29 30  1  0  0  0  0
 29 58  1  0  0  0  0
 30 35  2  0  0  0  0
 30 31  1  0  0  0  0
 31 32  2  0  0  0  0
 31 59  1  0  0  0  0
 32 33  1  0  0  0  0
 32 60  1  0  0  0  0
 33 34  2  0  0  0  0
 33 38  1  0  0  0  0
 34 35  1  0  0  0  0
 34 36  1  0  0  0  0
 35 61  1  0  0  0  0
 36 37  1  0  0  0  0
 37 62  1  0  0  0  0
 37 63  1  0  0  0  0
 37 64  1  0  0  0  0
 38 39  1  0  0  0  0
 39 65  1  0  0  0  0
 39 66  1  0  0  0  0
 39 67  1  0  0  0  0
M  END
$$$$
CHEMBL557059
  -OEChem-07121202283D

 58 62  0     0  0  0  0  0  0999 V2000
   -0.0168    1.3905    0.0097 C   0  0  0  0  0  0  0  0  0  0  0  0
    1.1694    2.0941    0.0021 C   0  0  0  0  0  0  0  0  0  0  0  0
    2.3789    1.4175   -0.0130 C   0  0  0  0  0  0  0  0  0  0  0  0
    2.4027    0.0319   -0.0212 C   0  0  0  0  0  0  0  0  0  0  0  0
    1.2216   -0.6805   -0.0142 C   0  0  0  0  0  0  0  0  0  0  0  0
    0.0021   -0.0041    0.0020 C   0  0  0  0  0  0  0  0  0  0  0  0
   -1.2695   -0.7646    0.0106 C   0  0  0  0  0  0  0  0  0  0  0  0
   -1.2342   -2.1621    0.0085 C   0  0  0  0  0  0  0  0  0  0  0  0
   -2.4062   -2.8666    0.0168 C   0  0  0  0  0  0  0  0  0  0  0  0
   -3.6176   -2.1535    0.0273 C   0  0  0  0  0  0  0  0  0  0  0  0
   -3.5823   -0.7463    0.0288 C   0  0  0  0  0  0  0  0  0  0  0  0
   -2.4208   -0.1084    0.0255 N   0  0  0  0  0  0  0  0  0  0  0  0
   -4.7618   -0.0290    0.0390 N   0  0  0  0  0  0  0  0  0  0  0  0
   -5.9368   -0.6943    0.0474 C   0  0  0  0  0  0  0  0  0  0  0  0
   -6.9899   -0.0841    0.0561 O   0  0  0  0  0  0  0  0  0  0  0  0
   -5.9288   -2.1687    0.0455 C   0  0  0  0  0  0  0  0  0  0  0  0
   -4.7905   -2.8160    0.0361 N   0  0  0  0  0  0  0  0  0  0  0  0
   -7.1231   -2.8678    0.0540 N   0  0  0  0  0  0  0  0  0  0  0  0
   -7.1143   -4.3327    0.0520 C   0  0  0  0  0  0  0  0  0  0  0  0
   -8.5537   -4.8514    0.0627 C   0  0  0  0  0  0  0  0  0  0  0  0
   -9.2287   -4.4624    1.3816 C   0  0  0  0  0  0  0  0  0  0  0  0
  -10.6409   -5.0524    1.4164 C   0  0  0  0  0  0  0  0  0  0  0  0
  -10.5670   -6.4711    1.2617 O   0  0  0  0  0  0  0  0  0  0  0  0
   -9.9878   -6.8938    0.0257 C   0  0  0  0  0  0  0  0  0  0  0  0
   -8.5493   -6.3778   -0.0651 C   0  0  0  0  0  0  0  0  0  0  0  0
   -4.7390    1.4358    0.0412 C   0  0  0  0  0  0  0  0  0  0  0  0
   -4.7421    1.9404   -1.3789 C   0  0  0  0  0  0  0  0  0  0  0  0
   -3.5466    2.1475   -2.0407 C   0  0  0  0  0  0  0  0  0  0  0  0
   -3.5482    2.6115   -3.3453 C   0  0  0  0  0  0  0  0  0  0  0  0
   -4.7478    2.8675   -3.9868 C   0  0  0  0  0  0  0  0  0  0  0  0
   -5.9445    2.6592   -3.3232 C   0  0  0  0  0  0  0  0  0  0  0  0
   -5.9406    2.1902   -2.0203 C   0  0  0  0  0  0  0  0  0  0  0  0
   -7.1160    2.9085   -3.9481 F   0  0  0  0  0  0  0  0  0  0  0  0
   -2.3794    2.8148   -3.9917 F   0  0  0  0  0  0  0  0  0  0  0  0
    3.5383    2.1110   -0.0204 F   0  0  0  0  0  0  0  0  0  0  0  0
   -0.9588    1.9185    0.0260 H   0  0  0  0  0  0  0  0  0  0  0  0
    1.1558    3.1740    0.0077 H   0  0  0  0  0  0  0  0  0  0  0  0
    3.3476   -0.4910   -0.0334 H   0  0  0  0  0  0  0  0  0  0  0  0
    1.2412   -1.7603   -0.0212 H   0  0  0  0  0  0  0  0  0  0  0  0
   -0.2876   -2.6818    0.0001 H   0  0  0  0  0  0  0  0  0  0  0  0
   -2.4012   -3.9466    0.0151 H   0  0  0  0  0  0  0  0  0  0  0  0
   -7.9660   -2.3878    0.0613 H   0  0  0  0  0  0  0  0  0  0  0  0
   -6.6053   -4.6919   -0.8424 H   0  0  0  0  0  0  0  0  0  0  0  0
   -6.5913   -4.6941    0.9375 H   0  0  0  0  0  0  0  0  0  0  0  0
   -9.1039   -4.4172   -0.7720 H   0  0  0  0  0  0  0  0  0  0  0  0
   -8.6492   -4.8550    2.2171 H   0  0  0  0  0  0  0  0  0  0  0  0
   -9.2858   -3.3764    1.4551 H   0  0  0  0  0  0  0  0  0  0  0  0
  -11.1107   -4.8148    2.3709 H   0  0  0  0  0  0  0  0  0  0  0  0
  -11.2321   -4.6286    0.6046 H   0  0  0  0  0  0  0  0  0  0  0  0
   -9.9870   -7.9828   -0.0218 H   0  0  0  0  0  0  0  0  0  0  0  0
  -10.5704   -6.4941   -0.8043 H   0  0  0  0  0  0  0  0  0  0  0  0
   -8.1204   -6.6616   -1.0261 H   0  0  0  0  0  0  0  0  0  0  0  0
   -7.9560   -6.8092    0.7412 H   0  0  0  0  0  0  0  0  0  0  0  0
   -5.6192    1.8122    0.5624 H   0  0  0  0  0  0  0  0  0  0  0  0
   -3.8395    1.7844    0.5486 H   0  0  0  0  0  0  0  0  0  0  0  0
   -2.6107    1.9478   -1.5400 H   0  0  0  0  0  0  0  0  0  0  0  0
   -4.7500    3.2297   -5.0043 H   0  0  0  0  0  0  0  0  0  0  0  0
   -6.8743    2.0234   -1.5038 H   0  0  0  0  0  0  0  0  0  0  0  0
  1  6  2  0  0  0  0
  1  2  1  0  0  0  0
  1 36  1  0  0  0  0
  2  3  2  0  0  0  0
  2 37  1  0  0  0  0
  3  4  1  0  0  0  0
  3 35  1  0  0  0  0
  4  5  2  0  0  0  0
  4 38  1  0  0  0  0
  5  6  1  0  0  0  0
  5 39  1  0  0  0  0
  6  7  1  0  0  0  0
  7 12  2  0  0  0  0
  7  8  1  0  0  0  0
  8  9  2  0  0  0  0
  8 40  1  0  0  0  0
  9 10  1  0  0  0  0
  9 41  1  0  0  0  0
 10 17  1  0  0  0  0
 10 11  2  0  0  0  0
 11 12  1  0  0  0  0
 11 13  1  0  0  0  0
 13 14  1  0  0  0  0
 13 26  1  0  0  0  0
 14 15  2  0  0  0  0
 14 16  1  0  0  0  0
 16 17  2  0  0  0  0
 16 18  1  0  0  0  0
 18 19  1  0  0  0  0
 18 42  1  0  0  0  0
 19 20  1  0  0  0  0
 19 43  1  0  0  0  0
 19 44  1  0  0  0  0
 20 25  1  0  0  0  0
 20 21  1  0  0  0  0
 20 45  1  0  0  0  0
 21 22  1  0  0  0  0
 21 46  1  0  0  0  0
 21 47  1  0  0  0  0
 22 23  1  0  0  0  0
 22 48  1  0  0  0  0
 22 49  1  0  0  0  0
 23 24  1  0  0  0  0
 24 25  1  0  0  0  0
 24 50  1  0  0  0  0
 24 51  1  0  0  0  0
 25 52  1  0  0  0  0
 25 53  1  0  0  0  0
 26 27  1  0  0  0  0
 26 54  1  0  0  0  0
 26 55  1  0  0  0  0
 27 32  2  0  0  0  0
 27 28  1  0  0  0  0
 28 29  2  0  0  0  0
 28 56  1  0  0  0  0
 29 30  1  0  0  0  0
 29 34  1  0  0  0  0
 30 31  2  0  0  0  0
 30 57  1  0  0  0  0
 31 32  1  0  0  0  0
 31 33  1  0  0  0  0
 32 58  1  0  0  0  0
M  END
$$$$
CHEMBL46831
  -OEChem-07121202283D

 36 38  0     0  0  0  0  0  0999 V2000
   -0.0187    1.5258    0.0104 C   0  0  0  0  0  0  0  0  0  0  0  0
    0.0021   -0.0041    0.0020 C   0  0  0  0  0  0  0  0  0  0  0  0
    0.7182   -0.4975   -1.2568 C   0  0  0  0  0  0  0  0  0  0  0  0
    0.7376   -1.9263   -1.2646 O   0  0  0  0  0  0  0  0  0  0  0  0
    1.3405   -2.5286   -2.3210 C   0  0  0  0  0  0  0  0  0  0  0  0
    1.9079   -1.7632   -3.3280 C   0  0  0  0  0  0  0  0  0  0  0  0
    2.5217   -2.3773   -4.4023 C   0  0  0  0  0  0  0  0  0  0  0  0
    2.5748   -3.7589   -4.4826 C   0  0  0  0  0  0  0  0  0  0  0  0
    2.0157   -4.5350   -3.4900 C   0  0  0  0  0  0  0  0  0  0  0  0
    1.3973   -3.9265   -2.3956 C   0  0  0  0  0  0  0  0  0  0  0  0
    0.8015   -4.7515   -1.3265 C   0  0  0  0  0  0  0  0  0  0  0  0
    0.2256   -4.1440   -0.3299 N   0  0  0  0  0  0  0  0  0  0  0  0
   -0.3546   -4.8306    0.7070 C   0  0  0  0  0  0  0  0  0  0  0  0
   -0.3099   -6.2902    0.6657 C   0  0  0  0  0  0  0  0  0  0  0  0
   -0.9205   -6.8988    1.7533 C   0  0  0  0  0  0  0  0  0  0  0  0
   -1.4665   -5.6172    2.6796 S   0  0  0  0  0  0  0  0  0  0  0  0
   -0.9644   -4.3179    1.7649 N   0  0  0  0  0  0  0  0  0  0  0  0
   -1.0594   -8.3727    2.0347 C   0  0  0  0  0  0  0  0  0  0  0  0
    0.3596   -6.9198   -0.4938 C   0  0  0  0  0  0  0  0  0  0  0  0
    0.8803   -6.1137   -1.4409 N   0  0  0  0  0  0  0  0  0  0  0  0
    0.4333   -8.1308   -0.5926 O   0  0  0  0  0  0  0  0  0  0  0  0
    1.0039    1.9031    0.0027 H   0  0  0  0  0  0  0  0  0  0  0  0
   -0.5459    1.8868   -0.8726 H   0  0  0  0  0  0  0  0  0  0  0  0
   -0.5289    1.8773    0.9072 H   0  0  0  0  0  0  0  0  0  0  0  0
    0.5293   -0.3651    0.8851 H   0  0  0  0  0  0  0  0  0  0  0  0
   -1.0205   -0.3814    0.0098 H   0  0  0  0  0  0  0  0  0  0  0  0
    0.1910   -0.1364   -2.1398 H   0  0  0  0  0  0  0  0  0  0  0  0
    1.7408   -0.1202   -1.2645 H   0  0  0  0  0  0  0  0  0  0  0  0
    1.8698   -0.6853   -3.2726 H   0  0  0  0  0  0  0  0  0  0  0  0
    2.9623   -1.7766   -5.1843 H   0  0  0  0  0  0  0  0  0  0  0  0
    3.0562   -4.2303   -5.3267 H   0  0  0  0  0  0  0  0  0  0  0  0
    2.0591   -5.6121   -3.5567 H   0  0  0  0  0  0  0  0  0  0  0  0
   -0.2000   -8.7152    2.6111 H   0  0  0  0  0  0  0  0  0  0  0  0
   -1.9722   -8.5495    2.6036 H   0  0  0  0  0  0  0  0  0  0  0  0
   -1.1066   -8.9196    1.0930 H   0  0  0  0  0  0  0  0  0  0  0  0
    1.3204   -6.5041   -2.2121 H   0  0  0  0  0  0  0  0  0  0  0  0
  1  2  1  0  0  0  0
  1 22  1  0  0  0  0
  1 23  1  0  0  0  0
  1 24  1  0  0  0  0
  2  3  1  0  0  0  0
  2 25  1  0  0  0  0
  2 26  1  0  0  0  0
  3  4  1  0  0  0  0
  3 27  1  0  0  0  0
  3 28  1  0  0  0  0
  4  5  1  0  0  0  0
  5 10  2  0  0  0  0
  5  6  1  0  0  0  0
  6  7  2  0  0  0  0
  6 29  1  0  0  0  0
  7  8  1  0  0  0  0
  7 30  1  0  0  0  0
  8  9  2  0  0  0  0
  8 31  1  0  0  0  0
  9 10  1  0  0  0  0
  9 32  1  0  0  0  0
 10 11  1  0  0  0  0
 11 20  1  0  0  0  0
 11 12  2  0  0  0  0
 12 13  1  0  0  0  0
 13 17  2  0  0  0  0
 13 14  1  0  0  0  0
 14 15  2  0  0  0  0
 14 19  1  0  0  0  0
 15 16  1  0  0  0  0
 15 18  1  0  0  0  0
 16 17  1  0  0  0  0
 18 33  1  0  0  0  0
 18 34  1  0  0  0  0
 18 35  1  0  0  0  0
 19 20  1  0  0  0  0
 19 21  2  0  0  0  0
 20 36  1  0  0  0  0
M  END
$$$$
CHEMBL46831
  -OEChem-07121202283D

 35 37  0     0  0  0  0  0  0999 V2000
   -0.0187    1.5258    0.0104 C   0  0  0  0  0  0  0  0  0  0  0  0
    0.0021   -0.0041    0.0020 C   0  0  0  0  0  0  0  0  0  0  0  0
   -1.4333   -0.5336    0.0129 C   0  0  0  0  0  0  0  0  0  0  0  0
   -1.4139   -1.9625    0.0050 O   0  0  0  0  0  0  0  0  0  0  0  0
   -2.6151   -2.5953    0.0131 C   0  0  0  0  0  0  0  0  0  0  0  0
   -3.7896   -1.8588    0.0225 C   0  0  0  0  0  0  0  0  0  0  0  0
   -5.0110   -2.5038    0.0312 C   0  0  0  0  0  0  0  0  0  0  0  0
   -5.0713   -3.8870    0.0302 C   0  0  0  0  0  0  0  0  0  0  0  0
   -3.9114   -4.6333    0.0204 C   0  0  0  0  0  0  0  0  0  0  0  0
   -2.6726   -3.9932    0.0061 C   0  0  0  0  0  0  0  0  0  0  0  0
   -1.4239   -4.7892   -0.0101 C   0  0  0  0  0  0  0  0  0  0  0  0
   -1.5195   -6.0984   -0.0216 N   0  0  0  0  0  0  0  0  0  0  0  0
   -0.4074   -6.8815   -0.0373 C   0  0  0  0  0  0  0  0  0  0  0  0
    0.8896   -6.2072   -0.0407 C   0  0  0  0  0  0  0  0  0  0  0  0
    1.9725   -7.0825   -0.0565 C   0  0  0  0  0  0  0  0  0  0  0  0
    1.2673   -8.5996   -0.0650 S   0  0  0  0  0  0  0  0  0  0  0  0
   -0.3524   -8.2073   -0.0496 N   0  0  0  0  0  0  0  0  0  0  0  0
    3.4405   -6.7419   -0.0649 C   0  0  0  0  0  0  0  0  0  0  0  0
    0.8921   -4.7785   -0.0278 C   0  0  0  0  0  0  0  0  0  0  0  0
   -0.2597   -4.1401   -0.0178 N   0  0  0  0  0  0  0  0  0  0  0  0
    2.0578   -4.0930   -0.0298 O   0  5  0  0  0  0  0  0  0  0  0  0
    1.0039    1.9031    0.0027 H   0  0  0  0  0  0  0  0  0  0  0  0
   -0.5459    1.8868   -0.8726 H   0  0  0  0  0  0  0  0  0  0  0  0
   -0.5289    1.8773    0.9072 H   0  0  0  0  0  0  0  0  0  0  0  0
    0.5123   -0.3556   -0.8948 H   0  0  0  0  0  0  0  0  0  0  0  0
    0.5293   -0.3651    0.8851 H   0  0  0  0  0  0  0  0  0  0  0  0
   -1.9435   -0.1821    0.9097 H   0  0  0  0  0  0  0  0  0  0  0  0
   -1.9605   -0.1726   -0.8702 H   0  0  0  0  0  0  0  0  0  0  0  0
   -3.7496   -0.7795    0.0234 H   0  0  0  0  0  0  0  0  0  0  0  0
   -5.9236   -1.9263    0.0393 H   0  0  0  0  0  0  0  0  0  0  0  0
   -6.0303   -4.3836    0.0374 H   0  0  0  0  0  0  0  0  0  0  0  0
   -3.9626   -5.7120    0.0195 H   0  0  0  0  0  0  0  0  0  0  0  0
    3.8023   -6.6686    0.9607 H   0  0  0  0  0  0  0  0  0  0  0  0
    3.9915   -7.5223   -0.5896 H   0  0  0  0  0  0  0  0  0  0  0  0
    3.5894   -5.7885   -0.5717 H   0  0  0  0  0  0  0  0  0  0  0  0
  1  2  1  0  0  0  0
  1 22  1  0  0  0  0
  1 23  1  0  0  0  0
  1 24  1  0  0  0  0
  2  3  1  0  0  0  0
  2 25  1  0  0  0  0
  2 26  1  0  0  0  0
  3  4  1  0  0  0  0
  3 27  1  0  0  0  0
  3 28  1  0  0  0  0
  4  5  1  0  0  0  0
  5 10  2  0  0  0  0
  5  6  1  0  0  0  0
  6  7  2  0  0  0  0
  6 29  1  0  0  0  0
  7  8  1  0  0  0  0
  7 30  1  0  0  0  0
  8  9  2  0  0  0  0
  8 31  1  0  0  0  0
  9 10  1  0  0  0  0
  9 32  1  0  0  0  0
 10 11  1  0  0  0  0
 11 20  1  0  0  0  0
 11 12  2  0  0  0  0
 12 13  1  0  0  0  0
 13 17  2  0  0  0  0
 13 14  1  0  0  0  0
 14 15  2  0  0  0  0
 14 19  1  0  0  0  0
 15 16  1  0  0  0  0
 15 18  1  0  0  0  0
 16 17  1  0  0  0  0
 18 33  1  0  0  0  0
 18 34  1  0  0  0  0
 18 35  1  0  0  0  0
 19 20  2  0  0  0  0
 19 21  1  0  0  0  0
M  CHG  1  21  -1
M  END
$$$$
CHEMBL25391
  -OEChem-07121202283D

 40 43  0     0  0  0  0  0  0999 V2000
   -0.0187    1.5258    0.0104 C   0  0  0  0  0  0  0  0  0  0  0  0
    0.0021   -0.0041    0.0020 C   0  0  0  0  0  0  0  0  0  0  0  0
    0.7182   -0.4975   -1.2568 C   0  0  0  0  0  0  0  0  0  0  0  0
    0.7376   -1.9263   -1.2646 O   0  0  0  0  0  0  0  0  0  0  0  0
    1.3405   -2.5286   -2.3210 C   0  0  0  0  0  0  0  0  0  0  0  0
    1.9080   -1.7631   -3.3280 C   0  0  0  0  0  0  0  0  0  0  0  0
    2.5216   -2.3772   -4.4022 C   0  0  0  0  0  0  0  0  0  0  0  0
    2.5748   -3.7589   -4.4825 C   0  0  0  0  0  0  0  0  0  0  0  0
    2.0153   -4.5350   -3.4902 C   0  0  0  0  0  0  0  0  0  0  0  0
    1.3973   -3.9265   -2.3956 C   0  0  0  0  0  0  0  0  0  0  0  0
    0.8014   -4.7515   -1.3265 C   0  0  0  0  0  0  0  0  0  0  0  0
    0.2213   -4.1466   -0.3223 N   0  0  0  0  0  0  0  0  0  0  0  0
   -0.3465   -4.8424    0.6941 C   0  0  0  0  0  0  0  0  0  0  0  0
   -0.9614   -4.1902    1.7573 C   0  0  0  0  0  0  0  0  0  0  0  0
   -1.5353   -4.9368    2.7850 C   0  0  0  0  0  0  0  0  0  0  0  0
   -1.4923   -6.3466    2.7462 C   0  0  0  0  0  0  0  0  0  0  0  0
   -0.8832   -7.0008    1.6920 C   0  0  0  0  0  0  0  0  0  0  0  0
   -0.3085   -6.2596    0.6644 C   0  0  0  0  0  0  0  0  0  0  0  0
    0.3503   -6.9112   -0.4768 C   0  0  0  0  0  0  0  0  0  0  0  0
    0.8771   -6.1149   -1.4351 N   0  0  0  0  0  0  0  0  0  0  0  0
    0.4153   -8.1240   -0.5589 O   0  0  0  0  0  0  0  0  0  0  0  0
   -2.1376   -6.7771    3.8925 N   0  0  0  0  0  0  0  0  0  0  0  0
   -2.2769   -7.6984    4.1624 H   0  0  0  0  0  0  0  0  0  0  0  0
   -2.5392   -5.6696    4.5700 C   0  0  0  0  0  0  0  0  0  0  0  0
   -2.1886   -4.5949    3.9251 N   0  0  0  0  0  0  0  0  0  0  0  0
    1.0039    1.9031    0.0027 H   0  0  0  0  0  0  0  0  0  0  0  0
   -0.5459    1.8868   -0.8726 H   0  0  0  0  0  0  0  0  0  0  0  0
   -0.5289    1.8773    0.9072 H   0  0  0  0  0  0  0  0  0  0  0  0
    0.5293   -0.3651    0.8851 H   0  0  0  0  0  0  0  0  0  0  0  0
   -1.0205   -0.3814    0.0098 H   0  0  0  0  0  0  0  0  0  0  0  0
    0.1910   -0.1364   -2.1398 H   0  0  0  0  0  0  0  0  0  0  0  0
    1.7408   -0.1202   -1.2645 H   0  0  0  0  0  0  0  0  0  0  0  0
    1.8698   -0.6852   -3.2726 H   0  0  0  0  0  0  0  0  0  0  0  0
    2.9622   -1.7766   -5.1842 H   0  0  0  0  0  0  0  0  0  0  0  0
    3.0565   -4.2303   -5.3265 H   0  0  0  0  0  0  0  0  0  0  0  0
    2.0587   -5.6120   -3.5569 H   0  0  0  0  0  0  0  0  0  0  0  0
   -0.9938   -3.1111    1.7867 H   0  0  0  0  0  0  0  0  0  0  0  0
   -0.8524   -8.0801    1.6669 H   0  0  0  0  0  0  0  0  0  0  0  0
   -3.0733   -5.6798    5.5086 H   0  0  0  0  0  0  0  0  0  0  0  0
    1.3153   -6.5126   -2.2037 H   0  0  0  0  0  0  0  0  0  0  0  0
  1  2  1  0  0  0  0
  1 26  1  0  0  0  0
  1 27  1  0  0  0  0
  1 28  1  0  0  0  0
  2  3  1  0  0  0  0
  2 29  1  0  0  0  0
  2 30  1  0  0  0  0
  3  4  1  0  0  0  0
  3 31  1  0  0  0  0
  3 32  1  0  0  0  0
  4  5  1  0  0  0  0
  5 10  2  0  0  0  0
  5  6  1  0  0  0  0
  6  7  2  0  0  0  0
  6 33  1  0  0  0  0
  7  8  1  0  0  0  0
  7 34  1  0  0  0  0
  8  9  2  0  0  0  0
  8 35  1  0  0  0  0
  9 10  1  0  0  0  0
  9 36  1  0  0  0  0
 10 11  1  0  0  0  0
 11 20  1  0  0  0  0
 11 12  2  0  0  0  0
 12 13  1  0  0  0  0
 13 18  2  0  0  0  0
 13 14  1  0  0  0  0
 14 15  2  0  0  0  0
 14 37  1  0  0  0  0
 15 25  1  0  0  0  0
 15 16  1  0  0  0  0
 16 17  2  0  0  0  0
 16 22  1  0  0  0  0
 17 18  1  0  0  0  0
 17 38  1  0  0  0  0
 18 19  1  0  0  0  0
 19 20  1  0  0  0  0
 19 21  2  0  0  0  0
 20 40  1  0  0  0  0
 22 23  1  0  0  0  0
 22 24  1  0  0  0  0
 24 25  2  0  0  0  0
 24 39  1  0  0  0  0
M  END
$$$$
CHEMBL25391
  -OEChem-07121202283D

 39 42  0     0  0  0  0  0  0999 V2000
   -0.0187    1.5258    0.0104 C   0  0  0  0  0  0  0  0  0  0  0  0
    0.0021   -0.0041    0.0020 C   0  0  0  0  0  0  0  0  0  0  0  0
    0.7182   -0.4975   -1.2568 C   0  0  0  0  0  0  0  0  0  0  0  0
    0.7376   -1.9263   -1.2646 O   0  0  0  0  0  0  0  0  0  0  0  0
    1.3407   -2.5288   -2.3214 C   0  0  0  0  0  0  0  0  0  0  0  0
    1.9081   -1.7631   -3.3282 C   0  0  0  0  0  0  0  0  0  0  0  0
    2.5218   -2.3773   -4.4025 C   0  0  0  0  0  0  0  0  0  0  0  0
    2.5748   -3.7585   -4.4815 C   0  0  0  0  0  0  0  0  0  0  0  0
    2.0147   -4.5335   -3.4874 C   0  0  0  0  0  0  0  0  0  0  0  0
    1.3972   -3.9247   -2.3955 C   0  0  0  0  0  0  0  0  0  0  0  0
    0.7995   -4.7518   -1.3220 C   0  0  0  0  0  0  0  0  0  0  0  0
    0.8747   -6.0653   -1.4198 N   0  0  0  0  0  0  0  0  0  0  0  0
    0.3453   -6.8490   -0.4666 C   0  0  0  0  0  0  0  0  0  0  0  0
    0.4123   -8.2406   -0.5470 C   0  0  0  0  0  0  0  0  0  0  0  0
   -0.1486   -9.0138    0.4621 C   0  0  0  0  0  0  0  0  0  0  0  0
   -0.7834   -8.3953    1.5636 C   0  0  0  0  0  0  0  0  0  0  0  0
   -0.8551   -7.0220    1.6528 C   0  0  0  0  0  0  0  0  0  0  0  0
   -0.2944   -6.2351    0.6437 C   0  0  0  0  0  0  0  0  0  0  0  0
   -0.3429   -4.8206    0.6919 C   0  0  0  0  0  0  0  0  0  0  0  0
    0.2125   -4.1379   -0.2942 N   0  0  0  0  0  0  0  0  0  0  0  0
   -0.9398   -4.1830    1.7252 O   0  5  0  0  0  0  0  0  0  0  0  0
   -1.2269   -9.4282    2.3730 N   0  0  0  0  0  0  0  0  0  0  0  0
   -1.7051   -9.3366    3.2119 H   0  0  0  0  0  0  0  0  0  0  0  0
   -0.8682  -10.5946    1.7728 C   0  0  0  0  0  0  0  0  0  0  0  0
   -0.2398  -10.3555    0.6592 N   0  0  0  0  0  0  0  0  0  0  0  0
    1.0039    1.9031    0.0027 H   0  0  0  0  0  0  0  0  0  0  0  0
   -0.5459    1.8868   -0.8726 H   0  0  0  0  0  0  0  0  0  0  0  0
   -0.5289    1.8773    0.9072 H   0  0  0  0  0  0  0  0  0  0  0  0
    0.5293   -0.3651    0.8851 H   0  0  0  0  0  0  0  0  0  0  0  0
   -1.0205   -0.3814    0.0098 H   0  0  0  0  0  0  0  0  0  0  0  0
    0.1910   -0.1364   -2.1398 H   0  0  0  0  0  0  0  0  0  0  0  0
    1.7408   -0.1202   -1.2645 H   0  0  0  0  0  0  0  0  0  0  0  0
    1.8698   -0.6852   -3.2728 H   0  0  0  0  0  0  0  0  0  0  0  0
    2.9622   -1.7771   -5.1849 H   0  0  0  0  0  0  0  0  0  0  0  0
    3.0561   -4.2310   -5.3250 H   0  0  0  0  0  0  0  0  0  0  0  0
    2.0578   -5.6106   -3.5528 H   0  0  0  0  0  0  0  0  0  0  0  0
    0.8968   -8.7136   -1.3884 H   0  0  0  0  0  0  0  0  0  0  0  0
   -1.3414   -6.5569    2.4976 H   0  0  0  0  0  0  0  0  0  0  0  0
   -1.0751  -11.5793    2.1651 H   0  0  0  0  0  0  0  0  0  0  0  0
  1  2  1  0  0  0  0
  1 26  1  0  0  0  0
  1 27  1  0  0  0  0
  1 28  1  0  0  0  0
  2  3  1  0  0  0  0
  2 29  1  0  0  0  0
  2 30  1  0  0  0  0
  3  4  1  0  0  0  0
  3 31  1  0  0  0  0
  3 32  1  0  0  0  0
  4  5  1  0  0  0  0
  5 10  2  0  0  0  0
  5  6  1  0  0  0  0
  6  7  2  0  0  0  0
  6 33  1  0  0  0  0
  7  8  1  0  0  0  0
  7 34  1  0  0  0  0
  8  9  2  0  0  0  0
  8 35  1  0  0  0  0
  9 10  1  0  0  0  0
  9 36  1  0  0  0  0
 10 11  1  0  0  0  0
 11 20  2  0  0  0  0
 11 12  1  0  0  0  0
 12 13  2  0  0  0  0
 13 18  1  0  0  0  0
 13 14  1  0  0  0  0
 14 15  2  0  0  0  0
 14 37  1  0  0  0  0
 15 25  1  0  0  0  0
 15 16  1  0  0  0  0
 16 17  2  0  0  0  0
 16 22  1  0  0  0  0
 17 18  1  0  0  0  0
 17 38  1  0  0  0  0
 18 19  2  0  0  0  0
 19 20  1  0  0  0  0
 19 21  1  0  0  0  0
 22 23  1  0  0  0  0
 22 24  1  0  0  0  0
 24 25  2  0  0  0  0
 24 39  1  0  0  0  0
M  CHG  1  21  -1
M  END
$$$$
CHEMBL25391
  -OEChem-07121202283D

 40 43  0     0  0  0  0  0  0999 V2000
   -0.0187    1.5258    0.0104 C   0  0  0  0  0  0  0  0  0  0  0  0
    0.0021   -0.0041    0.0020 C   0  0  0  0  0  0  0  0  0  0  0  0
    0.7182   -0.4975   -1.2568 C   0  0  0  0  0  0  0  0  0  0  0  0
    0.7376   -1.9263   -1.2646 O   0  0  0  0  0  0  0  0  0  0  0  0
    1.3403   -2.5283   -2.3206 C   0  0  0  0  0  0  0  0  0  0  0  0
    1.9079   -1.7628   -3.3280 C   0  0  0  0  0  0  0  0  0  0  0  0
    2.5205   -2.3769   -4.4024 C   0  0  0  0  0  0  0  0  0  0  0  0
    2.5739   -3.7590   -4.4831 C   0  0  0  0  0  0  0  0  0  0  0  0
    2.0153   -4.5354   -3.4913 C   0  0  0  0  0  0  0  0  0  0  0  0
    1.3972   -3.9272   -2.3954 C   0  0  0  0  0  0  0  0  0  0  0  0
    0.8031   -4.7517   -1.3272 C   0  0  0  0  0  0  0  0  0  0  0  0
    0.8829   -6.1060   -1.4321 N   0  0  0  0  0  0  0  0  0  0  0  0
    0.3367   -6.9166   -0.4495 C   0  0  0  0  0  0  0  0  0  0  0  0
    0.4036   -8.2929   -0.5312 C   0  0  0  0  0  0  0  0  0  0  0  0
   -0.1594   -9.0727    0.4812 C   0  0  0  0  0  0  0  0  0  0  0  0
   -0.7918   -8.4542    1.5790 C   0  0  0  0  0  0  0  0  0  0  0  0
   -0.8582   -7.0759    1.6619 C   0  0  0  0  0  0  0  0  0  0  0  0
   -0.2973   -6.3020    0.6514 C   0  0  0  0  0  0  0  0  0  0  0  0
   -0.3417   -4.8289    0.6919 C   0  0  0  0  0  0  0  0  0  0  0  0
    0.2248   -4.1442   -0.3134 N   0  0  0  0  0  0  0  0  0  0  0  0
   -0.8774   -4.2462    1.6196 O   0  0  0  0  0  0  0  0  0  0  0  0
   -1.2374   -9.4837    2.3896 N   0  0  0  0  0  0  0  0  0  0  0  0
   -1.7152   -9.3896    3.2284 H   0  0  0  0  0  0  0  0  0  0  0  0
   -0.8810  -10.6511    1.7917 C   0  0  0  0  0  0  0  0  0  0  0  0
   -0.2517  -10.4124    0.6776 N   0  0  0  0  0  0  0  0  0  0  0  0
    1.0039    1.9031    0.0027 H   0  0  0  0  0  0  0  0  0  0  0  0
   -0.5459    1.8868   -0.8726 H   0  0  0  0  0  0  0  0  0  0  0  0
   -0.5289    1.8773    0.9072 H   0  0  0  0  0  0  0  0  0  0  0  0
    0.5293   -0.3651    0.8851 H   0  0  0  0  0  0  0  0  0  0  0  0
   -1.0205   -0.3814    0.0098 H   0  0  0  0  0  0  0  0  0  0  0  0
    0.1910   -0.1364   -2.1398 H   0  0  0  0  0  0  0  0  0  0  0  0
    1.7408   -0.1202   -1.2645 H   0  0  0  0  0  0  0  0  0  0  0  0
    1.8704   -0.6849   -3.2724 H   0  0  0  0  0  0  0  0  0  0  0  0
    2.9604   -1.7762   -5.1847 H   0  0  0  0  0  0  0  0  0  0  0  0
    3.0553   -4.2300   -5.3274 H   0  0  0  0  0  0  0  0  0  0  0  0
    2.0586   -5.6125   -3.5588 H   0  0  0  0  0  0  0  0  0  0  0  0
    0.8884   -8.7640   -1.3735 H   0  0  0  0  0  0  0  0  0  0  0  0
   -1.3430   -6.6038    2.5036 H   0  0  0  0  0  0  0  0  0  0  0  0
   -1.0900  -11.6352    2.1845 H   0  0  0  0  0  0  0  0  0  0  0  0
    1.3236   -6.5058   -2.1981 H   0  0  0  0  0  0  0  0  0  0  0  0
  1  2  1  0  0  0  0
  1 26  1  0  0  0  0
  1 27  1  0  0  0  0
  1 28  1  0  0  0  0
  2  3  1  0  0  0  0
  2 29  1  0  0  0  0
  2 30  1  0  0  0  0
  3  4  1  0  0  0  0
  3 31  1  0  0  0  0
  3 32  1  0  0  0  0
  4  5  1  0  0  0  0
  5 10  2  0  0  0  0
  5  6  1  0  0  0  0
  6  7  2  0  0  0  0
  6 33  1  0  0  0  0
  7  8  1  0  0  0  0
  7 34  1  0  0  0  0
  8  9  2  0  0  0  0
  8 35  1  0  0  0  0
  9 10  1  0  0  0  0
  9 36  1  0  0  0  0
 10 11  1  0  0  0  0
 11 20  2  0  0  0  0
 11 12  1  0  0  0  0
 12 13  1  0  0  0  0
 12 40  1  0  0  0  0
 13 18  2  0  0  0  0
 13 14  1  0  0  0  0
 14 15  2  0  0  0  0
 14 37  1  0  0  0  0
 15 25  1  0  0  0  0
 15 16  1  0  0  0  0
 16 17  2  0  0  0  0
 16 22  1  0  0  0  0
 17 18  1  0  0  0  0
 17 38  1  0  0  0  0
 18 19  1  0  0  0  0
 19 20  1  0  0  0  0
 19 21  2  0  0  0  0
 22 23  1  0  0  0  0
 22 24  1  0  0  0  0
 24 25  2  0  0  0  0
 24 39  1  0  0  0  0
M  END
$$$$
CHEMBL456142
  -OEChem-07121202283D

 59 64  0     1  0  0  0  0  0999 V2000
   -0.0187    1.5258    0.0104 C   0  0  0  0  0  0  0  0  0  0  0  0
    0.0021   -0.0041    0.0020 C   0  0  0  0  0  0  0  0  0  0  0  0
   -1.3386   -0.4987    0.0122 O   0  0  0  0  0  0  0  0  0  0  0  0
   -1.4983   -1.8483    0.0064 C   0  0  0  0  0  0  0  0  0  0  0  0
   -0.3876   -2.6794   -0.0028 C   0  0  0  0  0  0  0  0  0  0  0  0
   -0.5526   -4.0509   -0.0082 C   0  0  0  0  0  0  0  0  0  0  0  0
   -1.8235   -4.5955   -0.0047 C   0  0  0  0  0  0  0  0  0  0  0  0
   -2.9322   -3.7693    0.0041 C   0  0  0  0  0  0  0  0  0  0  0  0
   -2.7724   -2.3972    0.0157 C   0  0  0  0  0  0  0  0  0  0  0  0
   -2.0007   -6.0920   -0.0110 C   0  0  2  0  0  0  0  0  0  0  0  0
   -1.0875   -6.5781    0.3325 H   0  0  0  0  0  0  0  0  0  0  0  0
   -2.3509   -6.5689   -1.4068 C   0  0  0  0  0  0  0  0  0  0  0  0
   -3.4232   -7.3393   -1.6867 C   0  0  0  0  0  0  0  0  0  0  0  0
   -3.4013   -7.5818   -3.1176 C   0  0  0  0  0  0  0  0  0  0  0  0
   -4.2446   -8.3051   -3.9664 C   0  0  0  0  0  0  0  0  0  0  0  0
   -3.9165   -8.3211   -5.2997 C   0  0  0  0  0  0  0  0  0  0  0  0
   -2.8056   -7.6559   -5.7923 C   0  0  0  0  0  0  0  0  0  0  0  0
   -1.9539   -6.9337   -4.9745 C   0  0  0  0  0  0  0  0  0  0  0  0
   -2.2623   -6.9000   -3.6159 C   0  0  0  0  0  0  0  0  0  0  0  0
   -1.6527   -6.2983   -2.5532 N   0  0  0  0  0  0  0  0  0  0  0  0
   -0.8471   -5.7602   -2.6026 H   0  0  0  0  0  0  0  0  0  0  0  0
   -4.4417   -7.8313   -0.6892 C   0  0  0  0  0  0  0  0  0  0  0  0
   -3.8486   -7.7563    0.7227 C   0  0  1  0  0  0  0  0  0  0  0  0
   -3.1966   -8.6049    0.9294 H   0  0  0  0  0  0  0  0  0  0  0  0
   -3.1277   -6.4699    0.8505 N   0  0  0  0  0  0  0  0  0  0  0  0
   -3.7059   -5.7868    1.8402 C   0  0  0  0  0  0  0  0  0  0  0  0
   -3.3146   -4.7071    2.2381 O   0  0  0  0  0  0  0  0  0  0  0  0
   -4.7689   -6.4298    2.3444 N   0  0  0  0  0  0  0  0  0  0  0  0
   -4.9668   -7.6479    1.7395 C   0  0  0  0  0  0  0  0  0  0  0  0
   -5.8363   -8.4635    1.9595 O   0  0  0  0  0  0  0  0  0  0  0  0
   -5.6165   -5.9028    3.4168 C   0  0  0  0  0  0  0  0  0  0  0  0
   -6.7425   -5.0997    2.8184 C   0  0  0  0  0  0  0  0  0  0  0  0
   -6.5802   -3.7462    2.5889 C   0  0  0  0  0  0  0  0  0  0  0  0
   -7.6131   -3.0095    2.0400 C   0  0  0  0  0  0  0  0  0  0  0  0
   -8.8081   -3.6264    1.7201 C   0  0  0  0  0  0  0  0  0  0  0  0
   -8.9701   -4.9800    1.9487 C   0  0  0  0  0  0  0  0  0  0  0  0
   -7.9357   -5.7176    2.4937 C   0  0  0  0  0  0  0  0  0  0  0  0
    1.0039    1.9031    0.0027 H   0  0  0  0  0  0  0  0  0  0  0  0
   -0.5459    1.8868   -0.8726 H   0  0  0  0  0  0  0  0  0  0  0  0
   -0.5289    1.8773    0.9072 H   0  0  0  0  0  0  0  0  0  0  0  0
    0.5123   -0.3556   -0.8948 H   0  0  0  0  0  0  0  0  0  0  0  0
    0.5293   -0.3651    0.8851 H   0  0  0  0  0  0  0  0  0  0  0  0
    0.6053   -2.2545   -0.0062 H   0  0  0  0  0  0  0  0  0  0  0  0
    0.3118   -4.6984   -0.0154 H   0  0  0  0  0  0  0  0  0  0  0  0
   -3.9238   -4.1971    0.0064 H   0  0  0  0  0  0  0  0  0  0  0  0
   -3.6386   -1.7523    0.0270 H   0  0  0  0  0  0  0  0  0  0  0  0
   -5.1130   -8.8262   -3.5912 H   0  0  0  0  0  0  0  0  0  0  0  0
   -4.5446   -8.8693   -5.9861 H   0  0  0  0  0  0  0  0  0  0  0  0
   -2.5968   -7.7028   -6.8509 H   0  0  0  0  0  0  0  0  0  0  0  0
   -1.0904   -6.4202   -5.3708 H   0  0  0  0  0  0  0  0  0  0  0  0
   -5.3337   -7.2071   -0.7425 H   0  0  0  0  0  0  0  0  0  0  0  0
   -4.7058   -8.8637   -0.9183 H   0  0  0  0  0  0  0  0  0  0  0  0
   -6.0277   -6.7304    3.9948 H   0  0  0  0  0  0  0  0  0  0  0  0
   -5.0215   -5.2640    4.0695 H   0  0  0  0  0  0  0  0  0  0  0  0
   -5.6466   -3.2643    2.8389 H   0  0  0  0  0  0  0  0  0  0  0  0
   -7.4866   -1.9519    1.8614 H   0  0  0  0  0  0  0  0  0  0  0  0
   -9.6153   -3.0507    1.2919 H   0  0  0  0  0  0  0  0  0  0  0  0
   -9.9038   -5.4619    1.6991 H   0  0  0  0  0  0  0  0  0  0  0  0
   -8.0609   -6.7759    2.6689 H   0  0  0  0  0  0  0  0  0  0  0  0
  1  2  1  0  0  0  0
  1 38  1  0  0  0  0
  1 39  1  0  0  0  0
  1 40  1  0  0  0  0
  2  3  1  0  0  0  0
  2 41  1  0  0  0  0
  2 42  1  0  0  0  0
  3  4  1  0  0  0  0
  4  9  2  0  0  0  0
  4  5  1  0  0  0  0
  5  6  2  0  0  0  0
  5 43  1  0  0  0  0
  6  7  1  0  0  0  0
  6 44  1  0  0  0  0
  7  8  2  0  0  0  0
  7 10  1  0  0  0  0
  8  9  1  0  0  0  0
  8 45  1  0  0  0  0
  9 46  1  0  0  0  0
 10 11  1  0  0  0  0
 10 25  1  0  0  0  0
 10 12  1  0  0  0  0
 12 20  1  0  0  0  0
 12 13  2  0  0  0  0
 13 14  1  0  0  0  0
 13 22  1  0  0  0  0
 14 19  2  0  0  0  0
 14 15  1  0  0  0  0
 15 16  2  0  0  0  0
 15 47  1  0  0  0  0
 16 17  1  0  0  0  0
 16 48  1  0  0  0  0
 17 18  2  0  0  0  0
 17 49  1  0  0  0  0
 18 19  1  0  0  0  0
 18 50  1  0  0  0  0
 19 20  1  0  0  0  0
 20 21  1  0  0  0  0
 22 23  1  0  0  0  0
 22 51  1  0  0  0  0
 22 52  1  0  0  0  0
 23 24  1  0  0  0  0
 23 29  1  0  0  0  0
 23 25  1  0  0  0  0
 25 26  1  0  0  0  0
 26 27  2  0  0  0  0
 26 28  1  0  0  0  0
 28 29  1  0  0  0  0
 28 31  1  0  0  0  0
 29 30  2  0  0  0  0
 31 32  1  0  0  0  0
 31 53  1  0  0  0  0
 31 54  1  0  0  0  0
 32 37  2  0  0  0  0
 32 33  1  0  0  0  0
 33 34  2  0  0  0  0
 33 55  1  0  0  0  0
 34 35  1  0  0  0  0
 34 56  1  0  0  0  0
 35 36  2  0  0  0  0
 35 57  1  0  0  0  0
 36 37  1  0  0  0  0
 36 58  1  0  0  0  0
 37 59  1  0  0  0  0
M  END
$$$$
CHEMBL342404
  -OEChem-07121202283D

 76 83  0     1  0  0  0  0  0999 V2000
   -0.0165    1.3628    0.0095 C   0  0  0  0  0  0  0  0  0  0  0  0
    1.1698    2.0838    0.0021 C   0  0  0  0  0  0  0  0  0  0  0  0
    2.3862    1.4376   -0.0135 C   0  0  0  0  0  0  0  0  0  0  0  0
    2.4284    0.0458   -0.0214 C   0  0  0  0  0  0  0  0  0  0  0  0
    1.2231   -0.6777   -0.0133 C   0  0  0  0  0  0  0  0  0  0  0  0
    0.0021   -0.0041    0.0020 C   0  0  0  0  0  0  0  0  0  0  0  0
    1.2934   -2.1480   -0.0219 C   0  0  0  0  0  0  0  0  0  0  0  0
    2.5744   -2.7535   -0.0380 C   0  0  0  0  0  0  0  0  0  0  0  0
    3.6874   -1.9921   -0.0449 C   0  0  0  0  0  0  0  0  0  0  0  0
    3.6240   -0.6315   -0.0374 N   0  0  0  0  0  0  0  0  0  0  0  0
    4.9010   -2.8944   -0.0614 C   0  0  2  0  0  0  0  0  0  0  0  0
    4.4244   -4.2808   -0.0638 N   0  0  0  0  0  0  0  0  0  0  0  0
    2.9595   -4.2121   -0.0492 C   0  0  0  0  0  0  0  0  0  0  0  0
    5.1813   -5.3958   -0.0778 C   0  0  0  0  0  0  0  0  0  0  0  0
    6.3954   -5.3072   -0.0901 O   0  0  0  0  0  0  0  0  0  0  0  0
    4.5434   -6.7139   -0.0782 C   0  0  0  0  0  0  0  0  0  0  0  0
    5.1949   -7.9283   -0.0861 C   0  0  0  0  0  0  0  0  0  0  0  0
    4.2062   -8.9167   -0.0833 C   0  0  0  0  0  0  0  0  0  0  0  0
    2.9990   -8.2776   -0.0739 C   0  0  0  0  0  0  0  0  0  0  0  0
    3.2143   -6.9514   -0.0650 O   0  0  0  0  0  0  0  0  0  0  0  0
    1.6773   -8.9348   -0.0688 C   0  0  0  0  0  0  0  0  0  0  0  0
    1.5883  -10.3291   -0.0677 C   0  0  0  0  0  0  0  0  0  0  0  0
    0.3526  -10.9386   -0.0624 C   0  0  0  0  0  0  0  0  0  0  0  0
   -0.8038  -10.1687   -0.0581 C   0  0  0  0  0  0  0  0  0  0  0  0
   -0.7198   -8.7820   -0.0592 C   0  0  0  0  0  0  0  0  0  0  0  0
    0.5118   -8.1644   -0.0592 C   0  0  0  0  0  0  0  0  0  0  0  0
   -2.0199  -10.7735   -0.0534 O   0  0  0  0  0  0  0  0  0  0  0  0
   -3.1677   -9.9223   -0.0492 C   0  0  0  0  0  0  0  0  0  0  0  0
   -4.4366  -10.7772   -0.0442 C   0  0  0  0  0  0  0  0  0  0  0  0
   -4.5108  -11.5360    1.2115 N   0  3  0  0  0  0  0  0  0  0  0  0
   -4.7540  -10.6162    2.3521 C   0  0  0  0  0  0  0  0  0  0  0  0
   -5.3539  -11.5465    3.4361 C   0  0  0  0  0  0  0  0  0  0  0  0
   -6.2365  -12.5125    2.6128 C   0  0  0  0  0  0  0  0  0  0  0  0
   -5.6674  -12.4574    1.1829 C   0  0  0  0  0  0  0  0  0  0  0  0
    5.7400   -2.6447    1.1653 C   0  0  0  0  0  0  0  0  0  0  0  0
    5.3847   -3.2176    2.3723 C   0  0  0  0  0  0  0  0  0  0  0  0
    6.1514   -2.9919    3.5002 C   0  0  0  0  0  0  0  0  0  0  0  0
    7.2785   -2.1899    3.4234 C   0  0  0  0  0  0  0  0  0  0  0  0
    7.6364   -1.6128    2.2075 C   0  0  0  0  0  0  0  0  0  0  0  0
    6.8665   -1.8480    1.0799 C   0  0  0  0  0  0  0  0  0  0  0  0
    8.7708   -0.8762    2.3914 O   0  0  0  0  0  0  0  0  0  0  0  0
    8.8731   -0.6764    3.8137 C   0  0  0  0  0  0  0  0  0  0  0  0
    8.1887   -1.8150    4.3690 O   0  0  0  0  0  0  0  0  0  0  0  0
    0.2786   -2.8253   -0.0151 O   0  0  0  0  0  0  0  0  0  0  0  0
   -0.9613    1.8858    0.0259 H   0  0  0  0  0  0  0  0  0  0  0  0
    1.1386    3.1633    0.0082 H   0  0  0  0  0  0  0  0  0  0  0  0
    3.3032    2.0080   -0.0199 H   0  0  0  0  0  0  0  0  0  0  0  0
   -0.9242   -0.5595    0.0083 H   0  0  0  0  0  0  0  0  0  0  0  0
    5.4905   -2.7047   -0.9584 H   0  0  0  0  0  0  0  0  0  0  0  0
    2.5749   -4.7034    0.8446 H   0  0  0  0  0  0  0  0  0  0  0  0
    2.5575   -4.6942   -0.9403 H   0  0  0  0  0  0  0  0  0  0  0  0
    6.2633   -8.0859   -0.0936 H   0  0  0  0  0  0  0  0  0  0  0  0
    4.3667   -9.9847   -0.0880 H   0  0  0  0  0  0  0  0  0  0  0  0
    2.4868  -10.9284   -0.0713 H   0  0  0  0  0  0  0  0  0  0  0  0
    0.2829  -12.0163   -0.0619 H   0  0  0  0  0  0  0  0  0  0  0  0
   -1.6213   -8.1873   -0.0563 H   0  0  0  0  0  0  0  0  0  0  0  0
    0.5762   -7.0863   -0.0558 H   0  0  0  0  0  0  0  0  0  0  0  0
   -3.1501   -9.2930    0.8406 H   0  0  0  0  0  0  0  0  0  0  0  0
   -3.1569   -9.2934   -0.9394 H   0  0  0  0  0  0  0  0  0  0  0  0
   -5.3103  -10.1312   -0.1306 H   0  0  0  0  0  0  0  0  0  0  0  0
   -4.4117  -11.4693   -0.8859 H   0  0  0  0  0  0  0  0  0  0  0  0
   -3.8186  -10.1761    2.6976 H   0  0  0  0  0  0  0  0  0  0  0  0
   -5.4666   -9.8393    2.0747 H   0  0  0  0  0  0  0  0  0  0  0  0
   -4.5659  -12.0919    3.9555 H   0  0  0  0  0  0  0  0  0  0  0  0
   -5.9594  -10.9770    4.1412 H   0  0  0  0  0  0  0  0  0  0  0  0
   -6.1626  -13.5246    3.0107 H   0  0  0  0  0  0  0  0  0  0  0  0
   -7.2735  -12.1769    2.6204 H   0  0  0  0  0  0  0  0  0  0  0  0
   -6.4252  -12.0810    0.4959 H   0  0  0  0  0  0  0  0  0  0  0  0
   -5.3429  -13.4511    0.8739 H   0  0  0  0  0  0  0  0  0  0  0  0
    4.5060   -3.8425    2.4343 H   0  0  0  0  0  0  0  0  0  0  0  0
    5.8715   -3.4407    4.4418 H   0  0  0  0  0  0  0  0  0  0  0  0
    7.1442   -1.4054    0.1348 H   0  0  0  0  0  0  0  0  0  0  0  0
    9.9177   -0.6681    4.1251 H   0  0  0  0  0  0  0  0  0  0  0  0
    8.3775    0.2490    4.1071 H   0  0  0  0  0  0  0  0  0  0  0  0
    4.4504   -0.1236   -0.0431 H   0  0  0  0  0  0  0  0  0  0  0  0
   -3.6570  -12.0536    1.3567 H   0  0  0  0  0  0  0  0  0  0  0  0
  1  6  2  0  0  0  0
  1  2  1  0  0  0  0
  1 45  1  0  0  0  0
  2  3  2  0  0  0  0
  2 46  1  0  0  0  0
  3  4  1  0  0  0  0
  3 47  1  0  0  0  0
  4 10  1  0  0  0  0
  4  5  2  0  0  0  0
  5  6  1  0  0  0  0
  5  7  1  0  0  0  0
  6 48  1  0  0  0  0
  7  8  1  0  0  0  0
  7 44  2  0  0  0  0
  8 13  1  0  0  0  0
  8  9  2  0  0  0  0
  9 10  1  0  0  0  0
  9 11  1  0  0  0  0
 10 75  1  0  0  0  0
 11 12  1  0  0  0  0
 11 35  1  0  0  0  0
 11 49  1  0  0  0  0
 12 13  1  0  0  0  0
 12 14  1  0  0  0  0
 13 50  1  0  0  0  0
 13 51  1  0  0  0  0
 14 15  2  0  0  0  0
 14 16  1  0  0  0  0
 16 20  1  0  0  0  0
 16 17  2  0  0  0  0
 17 18  1  0  0  0  0
 17 52  1  0  0  0  0
 18 19  2  0  0  0  0
 18 53  1  0  0  0  0
 19 20  1  0  0  0  0
 19 21  1  0  0  0  0
 21 26  2  0  0  0  0
 21 22  1  0  0  0  0
 22 23  2  0  0  0  0
 22 54  1  0  0  0  0
 23 24  1  0  0  0  0
 23 55  1  0  0  0  0
 24 25  2  0  0  0  0
 24 27  1  0  0  0  0
 25 26  1  0  0  0  0
 25 56  1  0  0  0  0
 26 57  1  0  0  0  0
 27 28  1  0  0  0  0
 28 29  1  0  0  0  0
 28 58  1  0  0  0  0
 28 59  1  0  0  0  0
 29 30  1  0  0  0  0
 29 60  1  0  0  0  0
 29 61  1  0  0  0  0
 30 34  1  0  0  0  0
 30 31  1  0  0  0  0
 30 76  1  0  0  0  0
 31 32  1  0  0  0  0
 31 62  1  0  0  0  0
 31 63  1  0  0  0  0
 32 33  1  0  0  0  0
 32 64  1  0  0  0  0
 32 65  1  0  0  0  0
 33 34  1  0  0  0  0
 33 66  1  0  0  0  0
 33 67  1  0  0  0  0
 34 68  1  0  0  0  0
 34 69  1  0  0  0  0
 35 40  2  0  0  0  0
 35 36  1  0  0  0  0
 36 37  2  0  0  0  0
 36 70  1  0  0  0  0
 37 38  1  0  0  0  0
 37 71  1  0  0  0  0
 38 43  1  0  0  0  0
 38 39  2  0  0  0  0
 39 40  1  0  0  0  0
 39 41  1  0  0  0  0
 40 72  1  0  0  0  0
 41 42  1  0  0  0  0
 42 43  1  0  0  0  0
 42 73  1  0  0  0  0
 42 74  1  0  0  0  0
M  CHG  1  30   1
M  END
$$$$
CHEMBL342404
  -OEChem-07121202283D

 76 83  0     1  0  0  0  0  0999 V2000
   -0.0165    1.3628    0.0095 C   0  0  0  0  0  0  0  0  0  0  0  0
    1.1698    2.0838    0.0021 C   0  0  0  0  0  0  0  0  0  0  0  0
    2.3862    1.4376   -0.0135 C   0  0  0  0  0  0  0  0  0  0  0  0
    2.4284    0.0458   -0.0214 C   0  0  0  0  0  0  0  0  0  0  0  0
    1.2231   -0.6777   -0.0133 C   0  0  0  0  0  0  0  0  0  0  0  0
    0.0021   -0.0041    0.0020 C   0  0  0  0  0  0  0  0  0  0  0  0
    1.2934   -2.1480   -0.0219 C   0  0  0  0  0  0  0  0  0  0  0  0
    2.5744   -2.7535   -0.0380 C   0  0  0  0  0  0  0  0  0  0  0  0
    3.6874   -1.9921   -0.0449 C   0  0  0  0  0  0  0  0  0  0  0  0
    3.6240   -0.6315   -0.0374 N   0  0  0  0  0  0  0  0  0  0  0  0
    4.9010   -2.8944   -0.0614 C   0  0  1  0  0  0  0  0  0  0  0  0
    4.4244   -4.2808   -0.0638 N   0  0  0  0  0  0  0  0  0  0  0  0
    2.9595   -4.2121   -0.0492 C   0  0  0  0  0  0  0  0  0  0  0  0
    5.1813   -5.3958   -0.0778 C   0  0  0  0  0  0  0  0  0  0  0  0
    6.3954   -5.3072   -0.0901 O   0  0  0  0  0  0  0  0  0  0  0  0
    4.5434   -6.7139   -0.0782 C   0  0  0  0  0  0  0  0  0  0  0  0
    5.1949   -7.9283   -0.0861 C   0  0  0  0  0  0  0  0  0  0  0  0
    4.2062   -8.9167   -0.0833 C   0  0  0  0  0  0  0  0  0  0  0  0
    2.9990   -8.2776   -0.0739 C   0  0  0  0  0  0  0  0  0  0  0  0
    3.2143   -6.9514   -0.0650 O   0  0  0  0  0  0  0  0  0  0  0  0
    1.6773   -8.9348   -0.0688 C   0  0  0  0  0  0  0  0  0  0  0  0
    1.5883  -10.3291   -0.0677 C   0  0  0  0  0  0  0  0  0  0  0  0
    0.3526  -10.9386   -0.0624 C   0  0  0  0  0  0  0  0  0  0  0  0
   -0.8038  -10.1687   -0.0581 C   0  0  0  0  0  0  0  0  0  0  0  0
   -0.7198   -8.7820   -0.0592 C   0  0  0  0  0  0  0  0  0  0  0  0
    0.5118   -8.1644   -0.0592 C   0  0  0  0  0  0  0  0  0  0  0  0
   -2.0199  -10.7735   -0.0534 O   0  0  0  0  0  0  0  0  0  0  0  0
   -3.1677   -9.9223   -0.0492 C   0  0  0  0  0  0  0  0  0  0  0  0
   -4.4366  -10.7772   -0.0442 C   0  0  0  0  0  0  0  0  0  0  0  0
   -4.5108  -11.5360    1.2115 N   0  3  0  0  0  0  0  0  0  0  0  0
   -4.7540  -10.6162    2.3521 C   0  0  0  0  0  0  0  0  0  0  0  0
   -5.3539  -11.5465    3.4361 C   0  0  0  0  0  0  0  0  0  0  0  0
   -6.2365  -12.5125    2.6128 C   0  0  0  0  0  0  0  0  0  0  0  0
   -5.6674  -12.4574    1.1829 C   0  0  0  0  0  0  0  0  0  0  0  0
    5.7160   -2.6321   -1.3016 C   0  0  0  0  0  0  0  0  0  0  0  0
    5.3306   -3.1832   -2.5095 C   0  0  0  0  0  0  0  0  0  0  0  0
    6.0746   -2.9451   -3.6500 C   0  0  0  0  0  0  0  0  0  0  0  0
    7.2095   -2.1531   -3.5847 C   0  0  0  0  0  0  0  0  0  0  0  0
    7.5977   -1.5979   -2.3679 C   0  0  0  0  0  0  0  0  0  0  0  0
    6.8440   -1.8362   -1.2301 C   0  0  0  0  0  0  0  0  0  0  0  0
    8.7339   -0.8674   -2.5644 O   0  0  0  0  0  0  0  0  0  0  0  0
    9.2645   -1.3137   -3.8263 C   0  0  0  0  0  0  0  0  0  0  0  0
    8.1025   -1.7704   -4.5435 O   0  0  0  0  0  0  0  0  0  0  0  0
    0.2786   -2.8253   -0.0151 O   0  0  0  0  0  0  0  0  0  0  0  0
   -0.9613    1.8858    0.0259 H   0  0  0  0  0  0  0  0  0  0  0  0
    1.1386    3.1633    0.0082 H   0  0  0  0  0  0  0  0  0  0  0  0
    3.3032    2.0080   -0.0199 H   0  0  0  0  0  0  0  0  0  0  0  0
   -0.9242   -0.5595    0.0083 H   0  0  0  0  0  0  0  0  0  0  0  0
    5.5079   -2.7138    0.8259 H   0  0  0  0  0  0  0  0  0  0  0  0
    2.5749   -4.7034    0.8446 H   0  0  0  0  0  0  0  0  0  0  0  0
    2.5575   -4.6942   -0.9403 H   0  0  0  0  0  0  0  0  0  0  0  0
    6.2633   -8.0859   -0.0936 H   0  0  0  0  0  0  0  0  0  0  0  0
    4.3667   -9.9847   -0.0880 H   0  0  0  0  0  0  0  0  0  0  0  0
    2.4868  -10.9284   -0.0713 H   0  0  0  0  0  0  0  0  0  0  0  0
    0.2829  -12.0163   -0.0619 H   0  0  0  0  0  0  0  0  0  0  0  0
   -1.6213   -8.1873   -0.0563 H   0  0  0  0  0  0  0  0  0  0  0  0
    0.5762   -7.0863   -0.0558 H   0  0  0  0  0  0  0  0  0  0  0  0
   -3.1501   -9.2930    0.8406 H   0  0  0  0  0  0  0  0  0  0  0  0
   -3.1569   -9.2934   -0.9394 H   0  0  0  0  0  0  0  0  0  0  0  0
   -5.3103  -10.1312   -0.1306 H   0  0  0  0  0  0  0  0  0  0  0  0
   -4.4117  -11.4693   -0.8859 H   0  0  0  0  0  0  0  0  0  0  0  0
   -3.8186  -10.1761    2.6976 H   0  0  0  0  0  0  0  0  0  0  0  0
   -5.4666   -9.8393    2.0747 H   0  0  0  0  0  0  0  0  0  0  0  0
   -4.5659  -12.0919    3.9555 H   0  0  0  0  0  0  0  0  0  0  0  0
   -5.9594  -10.9770    4.1412 H   0  0  0  0  0  0  0  0  0  0  0  0
   -6.1626  -13.5246    3.0107 H   0  0  0  0  0  0  0  0  0  0  0  0
   -7.2735  -12.1769    2.6204 H   0  0  0  0  0  0  0  0  0  0  0  0
   -6.4252  -12.0810    0.4959 H   0  0  0  0  0  0  0  0  0  0  0  0
   -5.3429  -13.4511    0.8739 H   0  0  0  0  0  0  0  0  0  0  0  0
    4.4467   -3.8015   -2.5622 H   0  0  0  0  0  0  0  0  0  0  0  0
    5.7713   -3.3769   -4.5923 H   0  0  0  0  0  0  0  0  0  0  0  0
    7.1401   -1.4033   -0.2860 H   0  0  0  0  0  0  0  0  0  0  0  0
    9.7409   -0.4881   -4.3550 H   0  0  0  0  0  0  0  0  0  0  0  0
    9.9690   -2.1321   -3.6777 H   0  0  0  0  0  0  0  0  0  0  0  0
    4.4504   -0.1236   -0.0431 H   0  0  0  0  0  0  0  0  0  0  0  0
   -3.6570  -12.0536    1.3567 H   0  0  0  0  0  0  0  0  0  0  0  0
  1  6  2  0  0  0  0
  1  2  1  0  0  0  0
  1 45  1  0  0  0  0
  2  3  2  0  0  0  0
  2 46  1  0  0  0  0
  3  4  1  0  0  0  0
  3 47  1  0  0  0  0
  4 10  1  0  0  0  0
  4  5  2  0  0  0  0
  5  6  1  0  0  0  0
  5  7  1  0  0  0  0
  6 48  1  0  0  0  0
  7  8  1  0  0  0  0
  7 44  2  0  0  0  0
  8 13  1  0  0  0  0
  8  9  2  0  0  0  0
  9 10  1  0  0  0  0
  9 11  1  0  0  0  0
 10 75  1  0  0  0  0
 11 12  1  0  0  0  0
 11 35  1  0  0  0  0
 11 49  1  0  0  0  0
 12 13  1  0  0  0  0
 12 14  1  0  0  0  0
 13 50  1  0  0  0  0
 13 51  1  0  0  0  0
 14 15  2  0  0  0  0
 14 16  1  0  0  0  0
 16 20  1  0  0  0  0
 16 17  2  0  0  0  0
 17 18  1  0  0  0  0
 17 52  1  0  0  0  0
 18 19  2  0  0  0  0
 18 53  1  0  0  0  0
 19 20  1  0  0  0  0
 19 21  1  0  0  0  0
 21 26  2  0  0  0  0
 21 22  1  0  0  0  0
 22 23  2  0  0  0  0
 22 54  1  0  0  0  0
 23 24  1  0  0  0  0
 23 55  1  0  0  0  0
 24 25  2  0  0  0  0
 24 27  1  0  0  0  0
 25 26  1  0  0  0  0
 25 56  1  0  0  0  0
 26 57  1  0  0  0  0
 27 28  1  0  0  0  0
 28 29  1  0  0  0  0
 28 58  1  0  0  0  0
 28 59  1  0  0  0  0
 29 30  1  0  0  0  0
 29 60  1  0  0  0  0
 29 61  1  0  0  0  0
 30 34  1  0  0  0  0
 30 31  1  0  0  0  0
 30 76  1  0  0  0  0
 31 32  1  0  0  0  0
 31 62  1  0  0  0  0
 31 63  1  0  0  0  0
 32 33  1  0  0  0  0
 32 64  1  0  0  0  0
 32 65  1  0  0  0  0
 33 34  1  0  0  0  0
 33 66  1  0  0  0  0
 33 67  1  0  0  0  0
 34 68  1  0  0  0  0
 34 69  1  0  0  0  0
 35 40  2  0  0  0  0
 35 36  1  0  0  0  0
 36 37  2  0  0  0  0
 36 70  1  0  0  0  0
 37 38  1  0  0  0  0
 37 71  1  0  0  0  0
 38 43  1  0  0  0  0
 38 39  2  0  0  0  0
 39 40  1  0  0  0  0
 39 41  1  0  0  0  0
 40 72  1  0  0  0  0
 41 42  1  0  0  0  0
 42 43  1  0  0  0  0
 42 73  1  0  0  0  0
 42 74  1  0  0  0  0
M  CHG  1  30   1
M  END
$$$$
CHEMBL210603
  -OEChem-07121202283D

 61 64  0     0  0  0  0  0  0999 V2000
   -0.0187    1.5258    0.0104 C   0  0  0  0  0  0  0  0  0  0  0  0
    0.0021   -0.0041    0.0020 C   0  0  0  0  0  0  0  0  0  0  0  0
    0.7421   -0.5109    1.2415 C   0  0  0  0  0  0  0  0  0  0  0  0
    0.7628   -2.0407    1.2331 C   0  0  0  0  0  0  0  0  0  0  0  0
    1.4540   -2.5141    2.3908 O   0  0  0  0  0  0  0  0  0  0  0  0
    1.5623   -3.8553    2.5362 C   0  0  0  0  0  0  0  0  0  0  0  0
    2.2256   -4.3797    3.6566 C   0  0  0  0  0  0  0  0  0  0  0  0
    2.3302   -5.7604    3.7945 C   0  0  0  0  0  0  0  0  0  0  0  0
    1.7635   -6.5713    2.7995 C   0  0  0  0  0  0  0  0  0  0  0  0
    1.1194   -5.9663    1.7143 C   0  0  0  0  0  0  0  0  0  0  0  0
    1.0368   -4.6562    1.6228 N   0  0  0  0  0  0  0  0  0  0  0  0
    1.8456   -8.0350    2.8953 C   0  0  0  0  0  0  0  0  0  0  0  0
    2.4062   -8.5504    3.8393 O   0  0  0  0  0  0  0  0  0  0  0  0
    1.2333   -8.8960    1.8207 C   0  0  0  0  0  0  0  0  0  0  0  0
    2.8062   -3.4763    4.6773 C   0  0  0  0  0  0  0  0  0  0  0  0
    3.4218   -4.0214    5.7047 N   0  0  0  0  0  0  0  0  0  0  0  0
    3.9680   -3.2559    6.6608 C   0  0  0  0  0  0  0  0  0  0  0  0
    4.6630   -3.4410    7.8361 C   0  0  0  0  0  0  0  0  0  0  0  0
    4.9284   -2.2183    8.3311 N   0  0  0  0  0  0  0  0  0  0  0  0
    4.4658   -1.2841    7.5778 N   0  0  0  0  0  0  0  0  0  0  0  0
    3.8595   -1.7897    6.5285 C   0  0  0  0  0  0  0  0  0  0  0  0
    3.1576   -1.2794    5.3531 C   0  0  0  0  0  0  0  0  0  0  0  0
    2.6769   -2.1615    4.4943 N   0  0  0  0  0  0  0  0  0  0  0  0
    3.0090    0.0496    5.1486 O   0  5  0  0  0  0  0  0  0  0  0  0
    5.6569   -1.9797    9.5794 C   0  0  0  0  0  0  0  0  0  0  0  0
    7.1315   -1.8724    9.2879 C   0  0  0  0  0  0  0  0  0  0  0  0
    7.8300   -0.7535    9.7013 C   0  0  0  0  0  0  0  0  0  0  0  0
    9.1862   -0.6647    9.4280 C   0  0  0  0  0  0  0  0  0  0  0  0
    9.7919   -1.7093    8.7461 C   0  0  0  0  0  0  0  0  0  0  0  0
    9.0290   -2.7963    8.3643 C   0  0  0  0  0  0  0  0  0  0  0  0
    7.7416   -2.8493    8.6461 N   0  0  0  0  0  0  0  0  0  0  0  0
    5.0510   -4.7612    8.4506 C   0  0  0  0  0  0  0  0  0  0  0  0
    3.9389   -5.2334    9.3892 C   0  0  0  0  0  0  0  0  0  0  0  0
    4.3329   -6.5738   10.0130 C   0  0  0  0  0  0  0  0  0  0  0  0
    1.0039    1.9031    0.0027 H   0  0  0  0  0  0  0  0  0  0  0  0
   -0.5459    1.8868   -0.8726 H   0  0  0  0  0  0  0  0  0  0  0  0
   -0.5289    1.8773    0.9072 H   0  0  0  0  0  0  0  0  0  0  0  0
   -1.0205   -0.3814    0.0098 H   0  0  0  0  0  0  0  0  0  0  0  0
    0.5123   -0.3556   -0.8948 H   0  0  0  0  0  0  0  0  0  0  0  0
    1.7647   -0.1336    1.2338 H   0  0  0  0  0  0  0  0  0  0  0  0
    0.2319   -0.1594    2.1383 H   0  0  0  0  0  0  0  0  0  0  0  0
   -0.2598   -2.4180    1.2409 H   0  0  0  0  0  0  0  0  0  0  0  0
    1.2730   -2.3923    0.3363 H   0  0  0  0  0  0  0  0  0  0  0  0
    2.8344   -6.1962    4.6444 H   0  0  0  0  0  0  0  0  0  0  0  0
    0.6807   -6.5830    0.9438 H   0  0  0  0  0  0  0  0  0  0  0  0
    0.7782   -8.2603    1.0611 H   0  0  0  0  0  0  0  0  0  0  0  0
    2.0077   -9.5115    1.3630 H   0  0  0  0  0  0  0  0  0  0  0  0
    0.4709   -9.5389    2.2607 H   0  0  0  0  0  0  0  0  0  0  0  0
    5.3076   -1.0517   10.0323 H   0  0  0  0  0  0  0  0  0  0  0  0
    5.4817   -2.8076   10.2664 H   0  0  0  0  0  0  0  0  0  0  0  0
    7.3255    0.0416   10.2301 H   0  0  0  0  0  0  0  0  0  0  0  0
    9.7574    0.1977    9.7385 H   0  0  0  0  0  0  0  0  0  0  0  0
   10.8465   -1.6735    8.5160 H   0  0  0  0  0  0  0  0  0  0  0  0
    9.4932   -3.6139    7.8329 H   0  0  0  0  0  0  0  0  0  0  0  0
    5.1990   -5.4993    7.6623 H   0  0  0  0  0  0  0  0  0  0  0  0
    5.9761   -4.6415    9.0146 H   0  0  0  0  0  0  0  0  0  0  0  0
    3.7909   -4.4953   10.1775 H   0  0  0  0  0  0  0  0  0  0  0  0
    3.0138   -5.3531    8.8252 H   0  0  0  0  0  0  0  0  0  0  0  0
    5.2579   -6.4542   10.5769 H   0  0  0  0  0  0  0  0  0  0  0  0
    3.5406   -6.9102   10.6816 H   0  0  0  0  0  0  0  0  0  0  0  0
    4.4808   -7.3119    9.2247 H   0  0  0  0  0  0  0  0  0  0  0  0
  1  2  1  0  0  0  0
  1 35  1  0  0  0  0
  1 36  1  0  0  0  0
  1 37  1  0  0  0  0
  2  3  1  0  0  0  0
  2 38  1  0  0  0  0
  2 39  1  0  0  0  0
  3  4  1  0  0  0  0
  3 40  1  0  0  0  0
  3 41  1  0  0  0  0
  4  5  1  0  0  0  0
  4 42  1  0  0  0  0
  4 43  1  0  0  0  0
  5  6  1  0  0  0  0
  6 11  2  0  0  0  0
  6  7  1  0  0  0  0
  7  8  2  0  0  0  0
  7 15  1  0  0  0  0
  8  9  1  0  0  0  0
  8 44  1  0  0  0  0
  9 10  2  0  0  0  0
  9 12  1  0  0  0  0
 10 11  1  0  0  0  0
 10 45  1  0  0  0  0
 12 13  2  0  0  0  0
 12 14  1  0  0  0  0
 14 46  1  0  0  0  0
 14 47  1  0  0  0  0
 14 48  1  0  0  0  0
 15 23  1  0  0  0  0
 15 16  2  0  0  0  0
 16 17  1  0  0  0  0
 17 21  1  0  0  0  0
 17 18  2  0  0  0  0
 18 19  1  0  0  0  0
 18 32  1  0  0  0  0
 19 20  1  0  0  0  0
 19 25  1  0  0  0  0
 20 21  2  0  0  0  0
 21 22  1  0  0  0  0
 22 23  2  0  0  0  0
 22 24  1  0  0  0  0
 25 26  1  0  0  0  0
 25 49  1  0  0  0  0
 25 50  1  0  0  0  0
 26 31  2  0  0  0  0
 26 27  1  0  0  0  0
 27 28  2  0  0  0  0
 27 51  1  0  0  0  0
 28 29  1  0  0  0  0
 28 52  1  0  0  0  0
 29 30  2  0  0  0  0
 29 53  1  0  0  0  0
 30 31  1  0  0  0  0
 30 54  1  0  0  0  0
 32 33  1  0  0  0  0
 32 55  1  0  0  0  0
 32 56  1  0  0  0  0
 33 34  1  0  0  0  0
 33 57  1  0  0  0  0
 33 58  1  0  0  0  0
 34 59  1  0  0  0  0
 34 60  1  0  0  0  0
 34 61  1  0  0  0  0
M  CHG  1  24  -1
M  END
$$$$
CHEMBL210603
  -OEChem-07121202283D

 62 65  0     0  0  0  0  0  0999 V2000
   -0.0187    1.5258    0.0104 C   0  0  0  0  0  0  0  0  0  0  0  0
    0.0021   -0.0041    0.0020 C   0  0  0  0  0  0  0  0  0  0  0  0
    0.7182   -0.4975   -1.2568 C   0  0  0  0  0  0  0  0  0  0  0  0
    0.7390   -2.0273   -1.2652 C   0  0  0  0  0  0  0  0  0  0  0  0
    1.4078   -2.4882   -2.4409 O   0  0  0  0  0  0  0  0  0  0  0  0
    1.5132   -3.8274   -2.6026 C   0  0  0  0  0  0  0  0  0  0  0  0
    2.1657   -4.3405   -3.7367 C   0  0  0  0  0  0  0  0  0  0  0  0
    2.2670   -5.7219   -3.8905 C   0  0  0  0  0  0  0  0  0  0  0  0
    1.7088   -6.5418   -2.8990 C   0  0  0  0  0  0  0  0  0  0  0  0
    1.0760   -5.9475   -1.8010 C   0  0  0  0  0  0  0  0  0  0  0  0
    1.0053   -4.6382   -1.6883 N   0  0  0  0  0  0  0  0  0  0  0  0
    1.7867   -8.0046   -3.0115 C   0  0  0  0  0  0  0  0  0  0  0  0
    2.3365   -8.5109   -3.9667 O   0  0  0  0  0  0  0  0  0  0  0  0
    1.1834   -8.8760   -1.9402 C   0  0  0  0  0  0  0  0  0  0  0  0
    2.7350   -3.4296   -4.7502 C   0  0  0  0  0  0  0  0  0  0  0  0
    2.6178   -2.1425   -4.5571 N   0  0  0  0  0  0  0  0  0  0  0  0
    3.1164   -1.2491   -5.4457 C   0  0  0  0  0  0  0  0  0  0  0  0
    3.1762    0.1173   -5.5654 C   0  0  0  0  0  0  0  0  0  0  0  0
    3.8279    0.3824   -6.7174 N   0  0  0  0  0  0  0  0  0  0  0  0
    4.1790   -0.6953   -7.3253 N   0  0  0  0  0  0  0  0  0  0  0  0
    3.8018   -1.7523   -6.6491 C   0  0  0  0  0  0  0  0  0  0  0  0
    3.9001   -3.2099   -6.8086 C   0  0  0  0  0  0  0  0  0  0  0  0
    3.3611   -3.9826   -5.8373 N   0  0  0  0  0  0  0  0  0  0  0  0
    4.4510   -3.7034   -7.7750 O   0  0  0  0  0  0  0  0  0  0  0  0
    4.1012    1.7329   -7.2151 C   0  0  0  0  0  0  0  0  0  0  0  0
    5.4307    2.2042   -6.6847 C   0  0  0  0  0  0  0  0  0  0  0  0
    6.4024    2.6395   -7.5662 C   0  0  0  0  0  0  0  0  0  0  0  0
    7.6220    3.0710   -7.0681 C   0  0  0  0  0  0  0  0  0  0  0  0
    7.8195    3.0485   -5.6957 C   0  0  0  0  0  0  0  0  0  0  0  0
    6.8015    2.5999   -4.8761 C   0  0  0  0  0  0  0  0  0  0  0  0
    5.6517    2.2017   -5.3848 N   0  0  0  0  0  0  0  0  0  0  0  0
    2.6197    1.1282   -4.5962 C   0  0  0  0  0  0  0  0  0  0  0  0
    1.1768    1.4623   -4.9801 C   0  0  0  0  0  0  0  0  0  0  0  0
    0.6118    2.4886   -3.9960 C   0  0  0  0  0  0  0  0  0  0  0  0
    1.0039    1.9031    0.0027 H   0  0  0  0  0  0  0  0  0  0  0  0
   -0.5459    1.8868   -0.8726 H   0  0  0  0  0  0  0  0  0  0  0  0
   -0.5289    1.8773    0.9072 H   0  0  0  0  0  0  0  0  0  0  0  0
    0.5293   -0.3651    0.8851 H   0  0  0  0  0  0  0  0  0  0  0  0
   -1.0205   -0.3814    0.0098 H   0  0  0  0  0  0  0  0  0  0  0  0
    0.1910   -0.1364   -2.1398 H   0  0  0  0  0  0  0  0  0  0  0  0
    1.7408   -0.1202   -1.2645 H   0  0  0  0  0  0  0  0  0  0  0  0
    1.2661   -2.3884   -0.3821 H   0  0  0  0  0  0  0  0  0  0  0  0
   -0.2836   -2.4046   -1.2575 H   0  0  0  0  0  0  0  0  0  0  0  0
    2.7616   -6.1495   -4.7502 H   0  0  0  0  0  0  0  0  0  0  0  0
    0.6437   -6.5721   -1.0332 H   0  0  0  0  0  0  0  0  0  0  0  0
    0.1454   -9.0944   -2.1912 H   0  0  0  0  0  0  0  0  0  0  0  0
    1.7444   -9.8080   -1.8712 H   0  0  0  0  0  0  0  0  0  0  0  0
    1.2240   -8.3558   -0.9832 H   0  0  0  0  0  0  0  0  0  0  0  0
    4.1286    1.7200   -8.3047 H   0  0  0  0  0  0  0  0  0  0  0  0
    3.3155    2.4098   -6.8794 H   0  0  0  0  0  0  0  0  0  0  0  0
    6.2140    2.6430   -8.6297 H   0  0  0  0  0  0  0  0  0  0  0  0
    8.3999    3.4161   -7.7330 H   0  0  0  0  0  0  0  0  0  0  0  0
    8.7574    3.3771   -5.2728 H   0  0  0  0  0  0  0  0  0  0  0  0
    6.9474    2.5793   -3.8062 H   0  0  0  0  0  0  0  0  0  0  0  0
    2.6409    0.7148   -3.5878 H   0  0  0  0  0  0  0  0  0  0  0  0
    3.2238    2.0348   -4.6299 H   0  0  0  0  0  0  0  0  0  0  0  0
    1.1556    1.8758   -5.9884 H   0  0  0  0  0  0  0  0  0  0  0  0
    0.5726    0.5557   -4.9463 H   0  0  0  0  0  0  0  0  0  0  0  0
    1.2160    3.3952   -4.0298 H   0  0  0  0  0  0  0  0  0  0  0  0
   -0.4161    2.7266   -4.2696 H   0  0  0  0  0  0  0  0  0  0  0  0
    0.6330    2.0752   -2.9877 H   0  0  0  0  0  0  0  0  0  0  0  0
    3.4150   -4.9480   -5.9140 H   0  0  0  0  0  0  0  0  0  0  0  0
  1  2  1  0  0  0  0
  1 35  1  0  0  0  0
  1 36  1  0  0  0  0
  1 37  1  0  0  0  0
  2  3  1  0  0  0  0
  2 38  1  0  0  0  0
  2 39  1  0  0  0  0
  3  4  1  0  0  0  0
  3 40  1  0  0  0  0
  3 41  1  0  0  0  0
  4  5  1  0  0  0  0
  4 42  1  0  0  0  0
  4 43  1  0  0  0  0
  5  6  1  0  0  0  0
  6 11  2  0  0  0  0
  6  7  1  0  0  0  0
  7  8  2  0  0  0  0
  7 15  1  0  0  0  0
  8  9  1  0  0  0  0
  8 44  1  0  0  0  0
  9 10  2  0  0  0  0
  9 12  1  0  0  0  0
 10 11  1  0  0  0  0
 10 45  1  0  0  0  0
 12 13  2  0  0  0  0
 12 14  1  0  0  0  0
 14 46  1  0  0  0  0
 14 47  1  0  0  0  0
 14 48  1  0  0  0  0
 15 23  1  0  0  0  0
 15 16  2  0  0  0  0
 16 17  1  0  0  0  0
 17 21  1  0  0  0  0
 17 18  2  0  0  0  0
 18 19  1  0  0  0  0
 18 32  1  0  0  0  0
 19 20  1  0  0  0  0
 19 25  1  0  0  0  0
 20 21  2  0  0  0  0
 21 22  1  0  0  0  0
 22 23  1  0  0  0  0
 22 24  2  0  0  0  0
 23 62  1  0  0  0  0
 25 26  1  0  0  0  0
 25 49  1  0  0  0  0
 25 50  1  0  0  0  0
 26 31  2  0  0  0  0
 26 27  1  0  0  0  0
 27 28  2  0  0  0  0
 27 51  1  0  0  0  0
 28 29  1  0  0  0  0
 28 52  1  0  0  0  0
 29 30  2  0  0  0  0
 29 53  1  0  0  0  0
 30 31  1  0  0  0  0
 30 54  1  0  0  0  0
 32 33  1  0  0  0  0
 32 55  1  0  0  0  0
 32 56  1  0  0  0  0
 33 34  1  0  0  0  0
 33 57  1  0  0  0  0
 33 58  1  0  0  0  0
 34 59  1  0  0  0  0
 34 60  1  0  0  0  0
 34 61  1  0  0  0  0
M  END
$$$$
CHEMBL210603
  -OEChem-07121202283D

 62 65  0     0  0  0  0  0  0999 V2000
   -0.0187    1.5258    0.0104 C   0  0  0  0  0  0  0  0  0  0  0  0
    0.0021   -0.0041    0.0020 C   0  0  0  0  0  0  0  0  0  0  0  0
    0.7421   -0.5109    1.2415 C   0  0  0  0  0  0  0  0  0  0  0  0
    0.7628   -2.0407    1.2331 C   0  0  0  0  0  0  0  0  0  0  0  0
    1.4540   -2.5141    2.3908 O   0  0  0  0  0  0  0  0  0  0  0  0
    1.5622   -3.8543    2.5361 C   0  0  0  0  0  0  0  0  0  0  0  0
    2.2266   -4.3803    3.6585 C   0  0  0  0  0  0  0  0  0  0  0  0
    2.3301   -5.7648    3.7951 C   0  0  0  0  0  0  0  0  0  0  0  0
    1.7628   -6.5726    2.8000 C   0  0  0  0  0  0  0  0  0  0  0  0
    1.1187   -5.9656    1.7148 C   0  0  0  0  0  0  0  0  0  0  0  0
    1.0368   -4.6558    1.6229 N   0  0  0  0  0  0  0  0  0  0  0  0
    1.8433   -8.0367    2.8940 C   0  0  0  0  0  0  0  0  0  0  0  0
    2.4034   -8.5539    3.8373 O   0  0  0  0  0  0  0  0  0  0  0  0
    1.2298   -8.8957    1.8184 C   0  0  0  0  0  0  0  0  0  0  0  0
    2.8054   -3.4822    4.6751 C   0  0  0  0  0  0  0  0  0  0  0  0
    3.4441   -4.0351    5.7418 N   0  0  0  0  0  0  0  0  0  0  0  0
    4.0017   -3.2221    6.7200 C   0  0  0  0  0  0  0  0  0  0  0  0
    4.6831   -3.4140    7.8741 C   0  0  0  0  0  0  0  0  0  0  0  0
    4.9547   -2.1900    8.3807 N   0  0  0  0  0  0  0  0  0  0  0  0
    4.4840   -1.2709    7.6117 N   0  0  0  0  0  0  0  0  0  0  0  0
    3.8874   -1.8111    6.5758 C   0  0  0  0  0  0  0  0  0  0  0  0
    3.1788   -1.3004    5.3879 C   0  0  0  0  0  0  0  0  0  0  0  0
    2.6852   -2.1827    4.5063 N   0  0  0  0  0  0  0  0  0  0  0  0
    3.0482   -0.1015    5.2084 O   0  0  0  0  0  0  0  0  0  0  0  0
    5.6813   -1.9445    9.6288 C   0  0  0  0  0  0  0  0  0  0  0  0
    7.1560   -1.8348    9.3384 C   0  0  0  0  0  0  0  0  0  0  0  0
    7.8513   -0.7126    9.7480 C   0  0  0  0  0  0  0  0  0  0  0  0
    9.2076   -0.6216    9.4758 C   0  0  0  0  0  0  0  0  0  0  0  0
    9.8165   -1.6675    8.7989 C   0  0  0  0  0  0  0  0  0  0  0  0
    9.0567   -2.7580    8.4208 C   0  0  0  0  0  0  0  0  0  0  0  0
    7.7692   -2.8129    8.7013 N   0  0  0  0  0  0  0  0  0  0  0  0
    5.0659   -4.7400    8.4794 C   0  0  0  0  0  0  0  0  0  0  0  0
    3.9516   -5.2144    9.4145 C   0  0  0  0  0  0  0  0  0  0  0  0
    4.3401   -6.5606   10.0290 C   0  0  0  0  0  0  0  0  0  0  0  0
    1.0039    1.9031    0.0027 H   0  0  0  0  0  0  0  0  0  0  0  0
   -0.5459    1.8868   -0.8726 H   0  0  0  0  0  0  0  0  0  0  0  0
   -0.5289    1.8773    0.9072 H   0  0  0  0  0  0  0  0  0  0  0  0
   -1.0205   -0.3814    0.0098 H   0  0  0  0  0  0  0  0  0  0  0  0
    0.5123   -0.3556   -0.8948 H   0  0  0  0  0  0  0  0  0  0  0  0
    1.7647   -0.1336    1.2338 H   0  0  0  0  0  0  0  0  0  0  0  0
    0.2319   -0.1594    2.1383 H   0  0  0  0  0  0  0  0  0  0  0  0
   -0.2598   -2.4180    1.2409 H   0  0  0  0  0  0  0  0  0  0  0  0
    1.2730   -2.3923    0.3363 H   0  0  0  0  0  0  0  0  0  0  0  0
    2.8338   -6.2023    4.6444 H   0  0  0  0  0  0  0  0  0  0  0  0
    0.6796   -6.5817    0.9440 H   0  0  0  0  0  0  0  0  0  0  0  0
    1.9692   -9.0873    1.0408 H   0  0  0  0  0  0  0  0  0  0  0  0
    0.9038   -9.8416    2.2508 H   0  0  0  0  0  0  0  0  0  0  0  0
    0.3729   -8.3794    1.3858 H   0  0  0  0  0  0  0  0  0  0  0  0
    5.3293   -1.0155   10.0774 H   0  0  0  0  0  0  0  0  0  0  0  0
    5.5073   -2.7700   10.3190 H   0  0  0  0  0  0  0  0  0  0  0  0
    7.3443    0.0835   10.2730 H   0  0  0  0  0  0  0  0  0  0  0  0
    9.7763    0.2435    9.7834 H   0  0  0  0  0  0  0  0  0  0  0  0
   10.8713   -1.6302    8.5698 H   0  0  0  0  0  0  0  0  0  0  0  0
    9.5234   -3.5766    7.8932 H   0  0  0  0  0  0  0  0  0  0  0  0
    5.2112   -5.4732    7.6861 H   0  0  0  0  0  0  0  0  0  0  0  0
    5.9912   -4.6279    9.0445 H   0  0  0  0  0  0  0  0  0  0  0  0
    3.8063   -4.4812   10.2078 H   0  0  0  0  0  0  0  0  0  0  0  0
    3.0263   -5.3265    8.8494 H   0  0  0  0  0  0  0  0  0  0  0  0
    3.5463   -6.8985   10.6951 H   0  0  0  0  0  0  0  0  0  0  0  0
    4.4855   -7.2938    9.2357 H   0  0  0  0  0  0  0  0  0  0  0  0
    5.2655   -6.4485   10.5941 H   0  0  0  0  0  0  0  0  0  0  0  0
    3.5100   -4.9998    5.8193 H   0  0  0  0  0  0  0  0  0  0  0  0
  1  2  1  0  0  0  0
  1 35  1  0  0  0  0
  1 36  1  0  0  0  0
  1 37  1  0  0  0  0
  2  3  1  0  0  0  0
  2 38  1  0  0  0  0
  2 39  1  0  0  0  0
  3  4  1  0  0  0  0
  3 40  1  0  0  0  0
  3 41  1  0  0  0  0
  4  5  1  0  0  0  0
  4 42  1  0  0  0  0
  4 43  1  0  0  0  0
  5  6  1  0  0  0  0
  6 11  2  0  0  0  0
  6  7  1  0  0  0  0
  7  8  2  0  0  0  0
  7 15  1  0  0  0  0
  8  9  1  0  0  0  0
  8 44  1  0  0  0  0
  9 10  2  0  0  0  0
  9 12  1  0  0  0  0
 10 11  1  0  0  0  0
 10 45  1  0  0  0  0
 12 13  2  0  0  0  0
 12 14  1  0  0  0  0
 14 46  1  0  0  0  0
 14 47  1  0  0  0  0
 14 48  1  0  0  0  0
 15 23  2  0  0  0  0
 15 16  1  0  0  0  0
 16 17  1  0  0  0  0
 16 62  1  0  0  0  0
 17 21  1  0  0  0  0
 17 18  2  0  0  0  0
 18 19  1  0  0  0  0
 18 32  1  0  0  0  0
 19 20  1  0  0  0  0
 19 25  1  0  0  0  0
 20 21  2  0  0  0  0
 21 22  1  0  0  0  0
 22 23  1  0  0  0  0
 22 24  2  0  0  0  0
 25 26  1  0  0  0  0
 25 49  1  0  0  0  0
 25 50  1  0  0  0  0
 26 31  2  0  0  0  0
 26 27  1  0  0  0  0
 27 28  2  0  0  0  0
 27 51  1  0  0  0  0
 28 29  1  0  0  0  0
 28 52  1  0  0  0  0
 29 30  2  0  0  0  0
 29 53  1  0  0  0  0
 30 31  1  0  0  0  0
 30 54  1  0  0  0  0
 32 33  1  0  0  0  0
 32 55  1  0  0  0  0
 32 56  1  0  0  0  0
 33 34  1  0  0  0  0
 33 57  1  0  0  0  0
 33 58  1  0  0  0  0
 34 59  1  0  0  0  0
 34 60  1  0  0  0  0
 34 61  1  0  0  0  0
M  END
$$$$
CHEMBL116818
  -OEChem-07121202283D

 44 47  0     0  0  0  0  0  0999 V2000
    1.7751    0.7573   -1.4645 C   0  0  0  0  0  0  0  0  0  0  0  0
    1.1797   -0.4426   -0.9667 O   0  0  0  0  0  0  0  0  0  0  0  0
    1.8052   -1.0570    0.0560 C   0  0  0  0  0  0  0  0  0  0  0  0
    2.8281   -0.5872    0.5126 O   0  0  0  0  0  0  0  0  0  0  0  0
    1.2472   -2.3023    0.6222 C   0  0  0  0  0  0  0  0  0  0  0  0
    0.0743   -2.8477    0.0952 C   0  0  0  0  0  0  0  0  0  0  0  0
   -0.4447   -4.0108    0.6259 C   0  0  0  0  0  0  0  0  0  0  0  0
    0.1922   -4.6403    1.6792 C   0  0  0  0  0  0  0  0  0  0  0  0
    1.3597   -4.1056    2.2113 C   0  0  0  0  0  0  0  0  0  0  0  0
    1.8931   -2.9406    1.6813 C   0  0  0  0  0  0  0  0  0  0  0  0
    1.9993   -4.7457    3.2771 N   0  0  0  0  0  0  0  0  0  0  0  0
    1.9610   -6.1211    3.3791 C   0  0  0  0  0  0  0  0  0  0  0  0
    2.5006   -6.7813    4.5116 C   0  0  0  0  0  0  0  0  0  0  0  0
    3.0906   -6.0795    5.5679 C   0  0  0  0  0  0  0  0  0  0  0  0
    3.5937   -6.7665    6.6339 C   0  0  0  0  0  0  0  0  0  0  0  0
    3.5281   -8.1560    6.6844 C   0  0  0  0  0  0  0  0  0  0  0  0
    2.9600   -8.8697    5.6714 C   0  0  0  0  0  0  0  0  0  0  0  0
    2.4322   -8.1955    4.5609 C   0  0  0  0  0  0  0  0  0  0  0  0
    1.8628   -8.8504    3.5400 N   0  0  0  0  0  0  0  0  0  0  0  0
    1.3755   -8.1864    2.5086 C   0  0  0  0  0  0  0  0  0  0  0  0
    1.4143   -6.8580    2.4239 N   0  0  0  0  0  0  0  0  0  0  0  0
    0.7540   -8.9511    1.4006 C   0  0  0  0  0  0  0  0  0  0  0  0
    0.2348   -8.2818    0.2936 C   0  0  0  0  0  0  0  0  0  0  0  0
   -0.3421   -8.9987   -0.7348 C   0  0  0  0  0  0  0  0  0  0  0  0
   -0.4060  -10.3790   -0.6684 C   0  0  0  0  0  0  0  0  0  0  0  0
    0.1076  -11.0486    0.4277 C   0  0  0  0  0  0  0  0  0  0  0  0
    0.6919  -10.3424    1.4594 C   0  0  0  0  0  0  0  0  0  0  0  0
    2.7813    0.5416   -1.8238 H   0  0  0  0  0  0  0  0  0  0  0  0
    1.1727    1.1487   -2.2843 H   0  0  0  0  0  0  0  0  0  0  0  0
    1.8254    1.4967   -0.6653 H   0  0  0  0  0  0  0  0  0  0  0  0
   -0.4265   -2.3589   -0.7274 H   0  0  0  0  0  0  0  0  0  0  0  0
   -1.3519   -4.4307    0.2172 H   0  0  0  0  0  0  0  0  0  0  0  0
   -0.2190   -5.5504    2.0902 H   0  0  0  0  0  0  0  0  0  0  0  0
    2.8027   -2.5261    2.0901 H   0  0  0  0  0  0  0  0  0  0  0  0
    2.4700   -4.2228    3.9449 H   0  0  0  0  0  0  0  0  0  0  0  0
    3.1479   -5.0014    5.5397 H   0  0  0  0  0  0  0  0  0  0  0  0
    4.0493   -6.2248    7.4495 H   0  0  0  0  0  0  0  0  0  0  0  0
    3.9339   -8.6767    7.5392 H   0  0  0  0  0  0  0  0  0  0  0  0
    2.9168   -9.9475    5.7238 H   0  0  0  0  0  0  0  0  0  0  0  0
    0.2835   -7.2041    0.2410 H   0  0  0  0  0  0  0  0  0  0  0  0
   -0.7447   -8.4812   -1.5930 H   0  0  0  0  0  0  0  0  0  0  0  0
   -0.8590  -10.9359   -1.4752 H   0  0  0  0  0  0  0  0  0  0  0  0
    0.0549  -12.1263    0.4742 H   0  0  0  0  0  0  0  0  0  0  0  0
    1.0963  -10.8665    2.3128 H   0  0  0  0  0  0  0  0  0  0  0  0
  1  2  1  0  0  0  0
  1 28  1  0  0  0  0
  1 29  1  0  0  0  0
  1 30  1  0  0  0  0
  2  3  1  0  0  0  0
  3  4  2  0  0  0  0
  3  5  1  0  0  0  0
  5 10  2  0  0  0  0
  5  6  1  0  0  0  0
  6  7  2  0  0  0  0
  6 31  1  0  0  0  0
  7  8  1  0  0  0  0
  7 32  1  0  0  0  0
  8  9  2  0  0  0  0
  8 33  1  0  0  0  0
  9 10  1  0  0  0  0
  9 11  1  0  0  0  0
 10 34  1  0  0  0  0
 11 12  1  0  0  0  0
 11 35  1  0  0  0  0
 12 21  2  0  0  0  0
 12 13  1  0  0  0  0
 13 18  2  0  0  0  0
 13 14  1  0  0  0  0
 14 15  2  0  0  0  0
 14 36  1  0  0  0  0
 15 16  1  0  0  0  0
 15 37  1  0  0  0  0
 16 17  2  0  0  0  0
 16 38  1  0  0  0  0
 17 18  1  0  0  0  0
 17 39  1  0  0  0  0
 18 19  1  0  0  0  0
 19 20  2  0  0  0  0
 20 21  1  0  0  0  0
 20 22  1  0  0  0  0
 22 27  2  0  0  0  0
 22 23  1  0  0  0  0
 23 24  2  0  0  0  0
 23 40  1  0  0  0  0
 24 25  1  0  0  0  0
 24 41  1  0  0  0  0
 25 26  2  0  0  0  0
 25 42  1  0  0  0  0
 26 27  1  0  0  0  0
 26 43  1  0  0  0  0
 27 44  1  0  0  0  0
M  END
$$$$
CHEMBL28079
  -OEChem-07121202283D

 32 34  0     0  0  0  0  0  0999 V2000
   -0.0187    1.5258    0.0104 C   0  0  0  0  0  0  0  0  0  0  0  0
    0.0021   -0.0041    0.0020 C   0  0  0  0  0  0  0  0  0  0  0  0
   -1.4333   -0.5336    0.0129 C   0  0  0  0  0  0  0  0  0  0  0  0
   -1.4139   -1.9625    0.0050 O   0  0  0  0  0  0  0  0  0  0  0  0
   -2.6151   -2.5953    0.0131 C   0  0  0  0  0  0  0  0  0  0  0  0
   -3.7896   -1.8587    0.0225 C   0  0  0  0  0  0  0  0  0  0  0  0
   -5.0110   -2.5038    0.0302 C   0  0  0  0  0  0  0  0  0  0  0  0
   -5.0712   -3.8870    0.0286 C   0  0  0  0  0  0  0  0  0  0  0  0
   -3.9112   -4.6331    0.0194 C   0  0  0  0  0  0  0  0  0  0  0  0
   -2.6726   -3.9931    0.0061 C   0  0  0  0  0  0  0  0  0  0  0  0
   -1.4236   -4.7892   -0.0095 C   0  0  0  0  0  0  0  0  0  0  0  0
   -0.2649   -4.1316   -0.0112 N   0  0  0  0  0  0  0  0  0  0  0  0
    0.8989   -4.7609   -0.0248 C   0  0  0  0  0  0  0  0  0  0  0  0
    2.0654   -4.0762   -0.0259 O   0  5  0  0  0  0  0  0  0  0  0  0
    0.8791   -6.2185   -0.0381 C   0  0  0  0  0  0  0  0  0  0  0  0
   -0.4379   -6.8780   -0.0354 C   0  0  0  0  0  0  0  0  0  0  0  0
   -1.5293   -6.1021   -0.0156 N   0  0  0  0  0  0  0  0  0  0  0  0
   -0.1625   -8.1684   -0.0491 N   0  0  0  0  0  0  0  0  0  0  0  0
    1.1160   -8.3236   -0.0590 N   0  0  0  0  0  0  0  0  0  0  0  0
    1.7534   -7.2037   -0.0530 N   0  0  0  0  0  0  0  0  0  0  0  0
    1.5521   -9.1900   -0.0702 H   0  0  0  0  0  0  0  0  0  0  0  0
    1.0039    1.9031    0.0027 H   0  0  0  0  0  0  0  0  0  0  0  0
   -0.5459    1.8868   -0.8726 H   0  0  0  0  0  0  0  0  0  0  0  0
   -0.5289    1.8773    0.9072 H   0  0  0  0  0  0  0  0  0  0  0  0
    0.5123   -0.3556   -0.8948 H   0  0  0  0  0  0  0  0  0  0  0  0
    0.5293   -0.3651    0.8851 H   0  0  0  0  0  0  0  0  0  0  0  0
   -1.9435   -0.1821    0.9097 H   0  0  0  0  0  0  0  0  0  0  0  0
   -1.9605   -0.1726   -0.8702 H   0  0  0  0  0  0  0  0  0  0  0  0
   -3.7496   -0.7795    0.0241 H   0  0  0  0  0  0  0  0  0  0  0  0
   -5.9236   -1.9263    0.0378 H   0  0  0  0  0  0  0  0  0  0  0  0
   -6.0302   -4.3837    0.0351 H   0  0  0  0  0  0  0  0  0  0  0  0
   -3.9623   -5.7119    0.0182 H   0  0  0  0  0  0  0  0  0  0  0  0
  1  2  1  0  0  0  0
  1 22  1  0  0  0  0
  1 23  1  0  0  0  0
  1 24  1  0  0  0  0
  2  3  1  0  0  0  0
  2 25  1  0  0  0  0
  2 26  1  0  0  0  0
  3  4  1  0  0  0  0
  3 27  1  0  0  0  0
  3 28  1  0  0  0  0
  4  5  1  0  0  0  0
  5 10  2  0  0  0  0
  5  6  1  0  0  0  0
  6  7  2  0  0  0  0
  6 29  1  0  0  0  0
  7  8  1  0  0  0  0
  7 30  1  0  0  0  0
  8  9  2  0  0  0  0
  8 31  1  0  0  0  0
  9 10  1  0  0  0  0
  9 32  1  0  0  0  0
 10 11  1  0  0  0  0
 11 17  2  0  0  0  0
 11 12  1  0  0  0  0
 12 13  2  0  0  0  0
 13 14  1  0  0  0  0
 13 15  1  0  0  0  0
 15 16  1  0  0  0  0
 15 20  2  0  0  0  0
 16 17  1  0  0  0  0
 16 18  2  0  0  0  0
 18 19  1  0  0  0  0
 19 21  1  0  0  0  0
 19 20  1  0  0  0  0
M  CHG  1  14  -1
M  END
$$$$
CHEMBL28079
  -OEChem-07121202283D

 32 34  0     0  0  0  0  0  0999 V2000
   -0.0187    1.5258    0.0104 C   0  0  0  0  0  0  0  0  0  0  0  0
    0.0021   -0.0041    0.0020 C   0  0  0  0  0  0  0  0  0  0  0  0
   -1.4333   -0.5336    0.0129 C   0  0  0  0  0  0  0  0  0  0  0  0
   -1.4139   -1.9625    0.0050 O   0  0  0  0  0  0  0  0  0  0  0  0
   -2.6153   -2.5953    0.0131 C   0  0  0  0  0  0  0  0  0  0  0  0
   -3.7897   -1.8588    0.0225 C   0  0  0  0  0  0  0  0  0  0  0  0
   -5.0111   -2.5039    0.0312 C   0  0  0  0  0  0  0  0  0  0  0  0
   -5.0711   -3.8869    0.0301 C   0  0  0  0  0  0  0  0  0  0  0  0
   -3.9107   -4.6328    0.0203 C   0  0  0  0  0  0  0  0  0  0  0  0
   -2.6726   -3.9927    0.0061 C   0  0  0  0  0  0  0  0  0  0  0  0
   -1.4229   -4.7891   -0.0106 C   0  0  0  0  0  0  0  0  0  0  0  0
   -0.2554   -4.1511   -0.0134 N   0  0  0  0  0  0  0  0  0  0  0  0
    0.8902   -4.8180   -0.0281 C   0  0  0  0  0  0  0  0  0  0  0  0
    2.0741   -4.1594   -0.0304 O   0  5  0  0  0  0  0  0  0  0  0  0
    0.8508   -6.2155   -0.0408 C   0  0  0  0  0  0  0  0  0  0  0  0
   -0.4029   -6.8559   -0.0375 C   0  0  0  0  0  0  0  0  0  0  0  0
   -1.5075   -6.1089   -0.0169 N   0  0  0  0  0  0  0  0  0  0  0  0
   -0.1346   -8.1733   -0.0521 N   0  0  0  0  0  0  0  0  0  0  0  0
    1.1405   -8.3484   -0.0635 N   0  0  0  0  0  0  0  0  0  0  0  0
    1.7753   -7.2265   -0.0576 N   0  0  0  0  0  0  0  0  0  0  0  0
    2.7391   -7.1171   -0.0641 H   0  0  0  0  0  0  0  0  0  0  0  0
    1.0039    1.9031    0.0027 H   0  0  0  0  0  0  0  0  0  0  0  0
   -0.5459    1.8868   -0.8726 H   0  0  0  0  0  0  0  0  0  0  0  0
   -0.5289    1.8773    0.9072 H   0  0  0  0  0  0  0  0  0  0  0  0
    0.5123   -0.3556   -0.8948 H   0  0  0  0  0  0  0  0  0  0  0  0
    0.5293   -0.3651    0.8851 H   0  0  0  0  0  0  0  0  0  0  0  0
   -1.9435   -0.1821    0.9097 H   0  0  0  0  0  0  0  0  0  0  0  0
   -1.9605   -0.1726   -0.8702 H   0  0  0  0  0  0  0  0  0  0  0  0
   -3.7496   -0.7795    0.0234 H   0  0  0  0  0  0  0  0  0  0  0  0
   -5.9238   -1.9264    0.0393 H   0  0  0  0  0  0  0  0  0  0  0  0
   -6.0299   -4.3838    0.0374 H   0  0  0  0  0  0  0  0  0  0  0  0
   -3.9616   -5.7116    0.0195 H   0  0  0  0  0  0  0  0  0  0  0  0
  1  2  1  0  0  0  0
  1 22  1  0  0  0  0
  1 23  1  0  0  0  0
  1 24  1  0  0  0  0
  2  3  1  0  0  0  0
  2 25  1  0  0  0  0
  2 26  1  0  0  0  0
  3  4  1  0  0  0  0
  3 27  1  0  0  0  0
  3 28  1  0  0  0  0
  4  5  1  0  0  0  0
  5 10  2  0  0  0  0
  5  6  1  0  0  0  0
  6  7  2  0  0  0  0
  6 29  1  0  0  0  0
  7  8  1  0  0  0  0
  7 30  1  0  0  0  0
  8  9  2  0  0  0  0
  8 31  1  0  0  0  0
  9 10  1  0  0  0  0
  9 32  1  0  0  0  0
 10 11  1  0  0  0  0
 11 17  2  0  0  0  0
 11 12  1  0  0  0  0
 12 13  2  0  0  0  0
 13 14  1  0  0  0  0
 13 15  1  0  0  0  0
 15 20  1  0  0  0  0
 15 16  2  0  0  0  0
 16 17  1  0  0  0  0
 16 18  1  0  0  0  0
 18 19  2  0  0  0  0
 19 20  1  0  0  0  0
 20 21  1  0  0  0  0
M  CHG  1  14  -1
M  END
$$$$
CHEMBL28079
  -OEChem-07121202283D

 32 34  0     0  0  0  0  0  0999 V2000
   -0.0187    1.5258    0.0104 C   0  0  0  0  0  0  0  0  0  0  0  0
    0.0021   -0.0041    0.0020 C   0  0  0  0  0  0  0  0  0  0  0  0
   -1.4333   -0.5336    0.0129 C   0  0  0  0  0  0  0  0  0  0  0  0
   -1.4139   -1.9625    0.0050 O   0  0  0  0  0  0  0  0  0  0  0  0
   -2.6152   -2.5953    0.0131 C   0  0  0  0  0  0  0  0  0  0  0  0
   -3.7896   -1.8588    0.0225 C   0  0  0  0  0  0  0  0  0  0  0  0
   -5.0111   -2.5039    0.0308 C   0  0  0  0  0  0  0  0  0  0  0  0
   -5.0712   -3.8870    0.0297 C   0  0  0  0  0  0  0  0  0  0  0  0
   -3.9111   -4.6331    0.0208 C   0  0  0  0  0  0  0  0  0  0  0  0
   -2.6726   -3.9930    0.0061 C   0  0  0  0  0  0  0  0  0  0  0  0
   -1.4235   -4.7891   -0.0106 C   0  0  0  0  0  0  0  0  0  0  0  0
   -0.2555   -4.1526   -0.0133 N   0  0  0  0  0  0  0  0  0  0  0  0
    0.8886   -4.8183   -0.0276 C   0  0  0  0  0  0  0  0  0  0  0  0
    2.0713   -4.1592   -0.0297 O   0  5  0  0  0  0  0  0  0  0  0  0
    0.8505   -6.2267   -0.0400 C   0  0  0  0  0  0  0  0  0  0  0  0
   -0.4080   -6.8564   -0.0366 C   0  0  0  0  0  0  0  0  0  0  0  0
   -1.5070   -6.1104   -0.0169 N   0  0  0  0  0  0  0  0  0  0  0  0
   -0.1580   -8.2010   -0.0510 N   0  0  0  0  0  0  0  0  0  0  0  0
    1.2372   -8.3495   -0.0627 N   0  0  0  0  0  0  0  0  0  0  0  0
    1.7907   -7.1872   -0.0559 N   0  0  0  0  0  0  0  0  0  0  0  0
   -0.8167   -8.9130   -0.0527 H   0  0  0  0  0  0  0  0  0  0  0  0
    1.0039    1.9031    0.0027 H   0  0  0  0  0  0  0  0  0  0  0  0
   -0.5459    1.8868   -0.8726 H   0  0  0  0  0  0  0  0  0  0  0  0
   -0.5289    1.8773    0.9072 H   0  0  0  0  0  0  0  0  0  0  0  0
    0.5123   -0.3556   -0.8948 H   0  0  0  0  0  0  0  0  0  0  0  0
    0.5293   -0.3651    0.8851 H   0  0  0  0  0  0  0  0  0  0  0  0
   -1.9435   -0.1821    0.9097 H   0  0  0  0  0  0  0  0  0  0  0  0
   -1.9605   -0.1726   -0.8702 H   0  0  0  0  0  0  0  0  0  0  0  0
   -3.7496   -0.7795    0.0238 H   0  0  0  0  0  0  0  0  0  0  0  0
   -5.9237   -1.9264    0.0385 H   0  0  0  0  0  0  0  0  0  0  0  0
   -6.0302   -4.3837    0.0362 H   0  0  0  0  0  0  0  0  0  0  0  0
   -3.9622   -5.7119    0.0203 H   0  0  0  0  0  0  0  0  0  0  0  0
  1  2  1  0  0  0  0
  1 22  1  0  0  0  0
  1 23  1  0  0  0  0
  1 24  1  0  0  0  0
  2  3  1  0  0  0  0
  2 25  1  0  0  0  0
  2 26  1  0  0  0  0
  3  4  1  0  0  0  0
  3 27  1  0  0  0  0
  3 28  1  0  0  0  0
  4  5  1  0  0  0  0
  5 10  2  0  0  0  0
  5  6  1  0  0  0  0
  6  7  2  0  0  0  0
  6 29  1  0  0  0  0
  7  8  1  0  0  0  0
  7 30  1  0  0  0  0
  8  9  2  0  0  0  0
  8 31  1  0  0  0  0
  9 10  1  0  0  0  0
  9 32  1  0  0  0  0
 10 11  1  0  0  0  0
 11 17  2  0  0  0  0
 11 12  1  0  0  0  0
 12 13  2  0  0  0  0
 13 14  1  0  0  0  0
 13 15  1  0  0  0  0
 15 16  2  0  0  0  0
 15 20  1  0  0  0  0
 16 17  1  0  0  0  0
 16 18  1  0  0  0  0
 18 21  1  0  0  0  0
 18 19  1  0  0  0  0
 19 20  2  0  0  0  0
M  CHG  1  14  -1
M  END
$$$$
CHEMBL28079
  -OEChem-07121202283D

 31 33  0     0  0  0  0  0  0999 V2000
   -0.0187    1.5258    0.0104 C   0  0  0  0  0  0  0  0  0  0  0  0
    0.0021   -0.0041    0.0020 C   0  0  0  0  0  0  0  0  0  0  0  0
    0.7421   -0.5109    1.2415 C   0  0  0  0  0  0  0  0  0  0  0  0
    0.7614   -1.9398    1.2337 O   0  0  0  0  0  0  0  0  0  0  0  0
    1.3846   -2.5535    2.2722 C   0  0  0  0  0  0  0  0  0  0  0  0
    1.9611   -1.7987    3.2821 C   0  0  0  0  0  0  0  0  0  0  0  0
    2.5944   -2.4244    4.3383 C   0  0  0  0  0  0  0  0  0  0  0  0
    2.6578   -3.8062    4.3960 C   0  0  0  0  0  0  0  0  0  0  0  0
    2.0888   -4.5703    3.3986 C   0  0  0  0  0  0  0  0  0  0  0  0
    1.4423   -3.9501    2.3303 C   0  0  0  0  0  0  0  0  0  0  0  0
    0.8246   -4.7657    1.2592 C   0  0  0  0  0  0  0  0  0  0  0  0
    0.2277   -4.1264    0.2543 N   0  0  0  0  0  0  0  0  0  0  0  0
   -0.3495   -4.7739   -0.7449 C   0  0  0  0  0  0  0  0  0  0  0  0
   -0.9505   -4.1076   -1.7571 O   0  5  0  0  0  0  0  0  0  0  0  0
   -0.3141   -6.2310   -0.7162 C   0  0  0  0  0  0  0  0  0  0  0  0
    0.3629   -6.8697    0.4254 C   0  0  0  0  0  0  0  0  0  0  0  0
    0.9052   -6.0766    1.3584 N   0  0  0  0  0  0  0  0  0  0  0  0
    0.2461   -8.1643    0.1980 N   0  0  0  0  0  0  0  0  0  0  0  0
   -0.3972   -8.3395   -0.9039 N   0  5  0  0  0  0  0  0  0  0  0  0
   -0.7388   -7.2297   -1.4627 N   0  0  0  0  0  0  0  0  0  0  0  0
    1.0039    1.9031    0.0027 H   0  0  0  0  0  0  0  0  0  0  0  0
   -0.5459    1.8868   -0.8726 H   0  0  0  0  0  0  0  0  0  0  0  0
   -0.5289    1.8773    0.9072 H   0  0  0  0  0  0  0  0  0  0  0  0
   -1.0205   -0.3814    0.0098 H   0  0  0  0  0  0  0  0  0  0  0  0
    0.5123   -0.3556   -0.8948 H   0  0  0  0  0  0  0  0  0  0  0  0
    1.7647   -0.1336    1.2338 H   0  0  0  0  0  0  0  0  0  0  0  0
    0.2319   -0.1594    2.1383 H   0  0  0  0  0  0  0  0  0  0  0  0
    1.9154   -0.7204    3.2428 H   0  0  0  0  0  0  0  0  0  0  0  0
    3.0426   -1.8327    5.1228 H   0  0  0  0  0  0  0  0  0  0  0  0
    3.1551   -4.2876    5.2250 H   0  0  0  0  0  0  0  0  0  0  0  0
    2.1405   -5.6480    3.4472 H   0  0  0  0  0  0  0  0  0  0  0  0
  1  2  1  0  0  0  0
  1 21  1  0  0  0  0
  1 22  1  0  0  0  0
  1 23  1  0  0  0  0
  2  3  1  0  0  0  0
  2 24  1  0  0  0  0
  2 25  1  0  0  0  0
  3  4  1  0  0  0  0
  3 26  1  0  0  0  0
  3 27  1  0  0  0  0
  4  5  1  0  0  0  0
  5 10  2  0  0  0  0
  5  6  1  0  0  0  0
  6  7  2  0  0  0  0
  6 28  1  0  0  0  0
  7  8  1  0  0  0  0
  7 29  1  0  0  0  0
  8  9  2  0  0  0  0
  8 30  1  0  0  0  0
  9 10  1  0  0  0  0
  9 31  1  0  0  0  0
 10 11  1  0  0  0  0
 11 17  2  0  0  0  0
 11 12  1  0  0  0  0
 12 13  2  0  0  0  0
 13 14  1  0  0  0  0
 13 15  1  0  0  0  0
 15 20  2  0  0  0  0
 15 16  1  0  0  0  0
 16 17  1  0  0  0  0
 16 18  2  0  0  0  0
 18 19  1  0  0  0  0
 19 20  1  0  0  0  0
M  CHG  2  14  -1  19  -1
M  END
$$$$
CHEMBL308249
  -OEChem-07121202283D

 67 73  0     1  0  0  0  0  0999 V2000
   -0.0178    1.4608    0.0101 C   0  0  0  0  0  0  0  0  0  0  0  0
    0.0021   -0.0041    0.0020 N   0  0  0  0  0  0  0  0  0  0  0  0
    0.0054   -0.6573   -1.1733 C   0  0  0  0  0  0  0  0  0  0  0  0
   -0.0091   -0.0326   -2.2187 O   0  0  0  0  0  0  0  0  0  0  0  0
    0.0253   -2.0678   -1.1930 C   0  0  0  0  0  0  0  0  0  0  0  0
    0.0428   -2.7648    0.0060 C   0  0  0  0  0  0  0  0  0  0  0  0
    0.0601   -4.0673   -0.2928 N   0  0  0  0  0  0  0  0  0  0  0  0
    0.0542   -4.2242   -1.5919 C   0  0  0  0  0  0  0  0  0  0  0  0
    0.0329   -3.0197   -2.1947 N   0  0  0  0  0  0  0  0  0  0  0  0
    0.0195   -2.7671   -3.6376 C   0  0  0  0  0  0  0  0  0  0  0  0
    1.4355   -2.6591   -4.1419 C   0  0  0  0  0  0  0  0  0  0  0  0
    2.0706   -1.4314   -4.1613 C   0  0  0  0  0  0  0  0  0  0  0  0
    3.3694   -1.3324   -4.6239 C   0  0  0  0  0  0  0  0  0  0  0  0
    4.0334   -2.4611   -5.0666 C   0  0  0  0  0  0  0  0  0  0  0  0
    3.3987   -3.6889   -5.0464 C   0  0  0  0  0  0  0  0  0  0  0  0
    2.1012   -3.7887   -4.5798 C   0  0  0  0  0  0  0  0  0  0  0  0
    0.0695   -5.5513   -2.3056 C   0  0  0  0  0  0  0  0  0  0  0  0
   -1.3461   -6.0146   -2.5351 C   0  0  0  0  0  0  0  0  0  0  0  0
   -1.9806   -6.7896   -1.5812 C   0  0  0  0  0  0  0  0  0  0  0  0
   -3.2770   -7.2167   -1.7861 C   0  0  0  0  0  0  0  0  0  0  0  0
   -3.9465   -6.8657   -2.9566 C   0  0  0  0  0  0  0  0  0  0  0  0
   -3.3025   -6.0848   -3.9142 C   0  0  0  0  0  0  0  0  0  0  0  0
   -2.0080   -5.6586   -3.6963 C   0  0  0  0  0  0  0  0  0  0  0  0
   -5.3402   -7.3223   -3.1827 C   0  0  0  0  0  0  0  0  0  0  0  0
   -5.9861   -8.0987   -2.2228 C   0  0  0  0  0  0  0  0  0  0  0  0
   -7.2825   -8.5203   -2.4381 C   0  0  0  0  0  0  0  0  0  0  0  0
   -7.9405   -8.1737   -3.6044 C   0  0  0  0  0  0  0  0  0  0  0  0
   -7.3040   -7.4035   -4.5609 C   0  0  0  0  0  0  0  0  0  0  0  0
   -6.0097   -6.9713   -4.3532 C   0  0  0  0  0  0  0  0  0  0  0  0
    0.0390   -2.0621    1.2023 N   0  0  0  0  0  0  0  0  0  0  0  0
    0.0228   -0.6909    1.2067 C   0  0  0  0  0  0  0  0  0  0  0  0
    0.0232   -0.1825    2.4083 N   0  3  0  0  0  0  0  0  0  0  0  0
    0.0515   -1.2406    3.4216 C   0  0  1  0  0  0  0  0  0  0  0  0
   -0.8088   -1.1891    4.0888 H   0  0  0  0  0  0  0  0  0  0  0  0
    0.0538   -2.5462    2.5925 C   0  0  2  0  0  0  0  0  0  0  0  0
   -0.7960   -3.1915    2.8149 H   0  0  0  0  0  0  0  0  0  0  0  0
    1.4070   -3.2270    2.8788 C   0  0  0  0  0  0  0  0  0  0  0  0
    2.3282   -2.0707    3.3395 C   0  0  0  0  0  0  0  0  0  0  0  0
    1.3841   -1.1747    4.1950 C   0  0  0  0  0  0  0  0  0  0  0  0
    1.0048    1.8381    0.0023 H   0  0  0  0  0  0  0  0  0  0  0  0
   -0.5450    1.8219   -0.8730 H   0  0  0  0  0  0  0  0  0  0  0  0
   -0.5280    1.8123    0.9069 H   0  0  0  0  0  0  0  0  0  0  0  0
   -0.4855   -3.5887   -4.1457 H   0  0  0  0  0  0  0  0  0  0  0  0
   -0.5098   -1.8356   -3.8385 H   0  0  0  0  0  0  0  0  0  0  0  0
    1.5518   -0.5496   -3.8154 H   0  0  0  0  0  0  0  0  0  0  0  0
    3.8654   -0.3731   -4.6397 H   0  0  0  0  0  0  0  0  0  0  0  0
    5.0480   -2.3836   -5.4287 H   0  0  0  0  0  0  0  0  0  0  0  0
    3.9173   -4.5707   -5.3926 H   0  0  0  0  0  0  0  0  0  0  0  0
    1.6066   -4.7485   -4.5605 H   0  0  0  0  0  0  0  0  0  0  0  0
    0.5761   -5.4424   -3.2646 H   0  0  0  0  0  0  0  0  0  0  0  0
    0.5978   -6.2852   -1.6970 H   0  0  0  0  0  0  0  0  0  0  0  0
   -1.4606   -7.0614   -0.6745 H   0  0  0  0  0  0  0  0  0  0  0  0
   -3.7714   -7.8221   -1.0408 H   0  0  0  0  0  0  0  0  0  0  0  0
   -3.8167   -5.8102   -4.8233 H   0  0  0  0  0  0  0  0  0  0  0  0
   -1.5094   -5.0493   -4.4357 H   0  0  0  0  0  0  0  0  0  0  0  0
   -5.4730   -8.3705   -1.3121 H   0  0  0  0  0  0  0  0  0  0  0  0
   -7.7841   -9.1222   -1.6947 H   0  0  0  0  0  0  0  0  0  0  0  0
   -8.9548   -8.5060   -3.7690 H   0  0  0  0  0  0  0  0  0  0  0  0
   -7.8222   -7.1361   -5.4699 H   0  0  0  0  0  0  0  0  0  0  0  0
   -5.5152   -6.3663   -5.0987 H   0  0  0  0  0  0  0  0  0  0  0  0
    1.3006   -3.9681    3.6710 H   0  0  0  0  0  0  0  0  0  0  0  0
    1.7999   -3.6895    1.9734 H   0  0  0  0  0  0  0  0  0  0  0  0
    3.1475   -2.4495    3.9506 H   0  0  0  0  0  0  0  0  0  0  0  0
    2.7088   -1.5152    2.4825 H   0  0  0  0  0  0  0  0  0  0  0  0
    1.7428   -0.1468    4.2495 H   0  0  0  0  0  0  0  0  0  0  0  0
    1.2656   -1.5917    5.1951 H   0  0  0  0  0  0  0  0  0  0  0  0
    0.0072    0.7673    2.6043 H   0  0  0  0  0  0  0  0  0  0  0  0
  1  2  1  0  0  0  0
  1 40  1  0  0  0  0
  1 41  1  0  0  0  0
  1 42  1  0  0  0  0
  2 31  1  0  0  0  0
  2  3  1  0  0  0  0
  3  4  2  0  0  0  0
  3  5  1  0  0  0  0
  5  9  1  0  0  0  0
  5  6  2  0  0  0  0
  6  7  1  0  0  0  0
  6 30  1  0  0  0  0
  7  8  2  0  0  0  0
  8  9  1  0  0  0  0
  8 17  1  0  0  0  0
  9 10  1  0  0  0  0
 10 11  1  0  0  0  0
 10 43  1  0  0  0  0
 10 44  1  0  0  0  0
 11 16  2  0  0  0  0
 11 12  1  0  0  0  0
 12 13  2  0  0  0  0
 12 45  1  0  0  0  0
 13 14  1  0  0  0  0
 13 46  1  0  0  0  0
 14 15  2  0  0  0  0
 14 47  1  0  0  0  0
 15 16  1  0  0  0  0
 15 48  1  0  0  0  0
 16 49  1  0  0  0  0
 17 18  1  0  0  0  0
 17 50  1  0  0  0  0
 17 51  1  0  0  0  0
 18 23  2  0  0  0  0
 18 19  1  0  0  0  0
 19 20  2  0  0  0  0
 19 52  1  0  0  0  0
 20 21  1  0  0  0  0
 20 53  1  0  0  0  0
 21 22  2  0  0  0  0
 21 24  1  0  0  0  0
 22 23  1  0  0  0  0
 22 54  1  0  0  0  0
 23 55  1  0  0  0  0
 24 29  2  0  0  0  0
 24 25  1  0  0  0  0
 25 26  2  0  0  0  0
 25 56  1  0  0  0  0
 26 27  1  0  0  0  0
 26 57  1  0  0  0  0
 27 28  2  0  0  0  0
 27 58  1  0  0  0  0
 28 29  1  0  0  0  0
 28 59  1  0  0  0  0
 29 60  1  0  0  0  0
 30 35  1  0  0  0  0
 30 31  1  0  0  0  0
 31 32  2  0  0  0  0
 32 33  1  0  0  0  0
 32 67  1  0  0  0  0
 33 34  1  0  0  0  0
 33 39  1  0  0  0  0
 33 35  1  0  0  0  0
 35 36  1  0  0  0  0
 35 37  1  0  0  0  0
 37 38  1  0  0  0  0
 37 61  1  0  0  0  0
 37 62  1  0  0  0  0
 38 39  1  0  0  0  0
 38 63  1  0  0  0  0
 38 64  1  0  0  0  0
 39 65  1  0  0  0  0
 39 66  1  0  0  0  0
M  CHG  1  32   1
M  END
$$$$
CHEMBL71204
  -OEChem-07121202283D

 60 65  0     0  0  0  0  0  0999 V2000
   -0.0178    1.4608    0.0101 C   0  0  0  0  0  0  0  0  0  0  0  0
    0.0021   -0.0041    0.0020 N   0  0  0  0  0  0  0  0  0  0  0  0
    0.0054   -0.6577   -1.1733 C   0  0  0  0  0  0  0  0  0  0  0  0
   -0.0089   -0.0330   -2.2187 O   0  0  0  0  0  0  0  0  0  0  0  0
    0.0260   -2.0682   -1.1933 C   0  0  0  0  0  0  0  0  0  0  0  0
    0.0444   -2.7656    0.0057 C   0  0  0  0  0  0  0  0  0  0  0  0
    0.0619   -4.0681   -0.2937 N   0  0  0  0  0  0  0  0  0  0  0  0
    0.0546   -4.2245   -1.5929 C   0  0  0  0  0  0  0  0  0  0  0  0
    0.0320   -3.0199   -2.1952 N   0  0  0  0  0  0  0  0  0  0  0  0
    0.0162   -2.7669   -3.6381 C   0  0  0  0  0  0  0  0  0  0  0  0
    1.4314   -2.6588   -4.1446 C   0  0  0  0  0  0  0  0  0  0  0  0
    2.0665   -1.4311   -4.1647 C   0  0  0  0  0  0  0  0  0  0  0  0
    3.3647   -1.3320   -4.6293 C   0  0  0  0  0  0  0  0  0  0  0  0
    4.0279   -2.4606   -5.0735 C   0  0  0  0  0  0  0  0  0  0  0  0
    3.3931   -3.6884   -5.0525 C   0  0  0  0  0  0  0  0  0  0  0  0
    2.0965   -3.7882   -4.5839 C   0  0  0  0  0  0  0  0  0  0  0  0
    0.0688   -5.5515   -2.3070 C   0  0  0  0  0  0  0  0  0  0  0  0
   -1.3471   -6.0144   -2.5352 C   0  0  0  0  0  0  0  0  0  0  0  0
   -1.9828   -6.7891   -1.5831 C   0  0  0  0  0  0  0  0  0  0  0  0
   -3.2816   -7.2137   -1.7923 C   0  0  0  0  0  0  0  0  0  0  0  0
   -3.9448   -6.8632   -2.9535 C   0  0  0  0  0  0  0  0  0  0  0  0
   -3.3093   -6.0877   -3.9051 C   0  0  0  0  0  0  0  0  0  0  0  0
   -2.0120   -5.6595   -3.6939 C   0  0  0  0  0  0  0  0  0  0  0  0
    0.0410   -2.0630    1.2010 N   0  0  0  0  0  0  0  0  0  0  0  0
    0.0228   -0.6909    1.2059 C   0  0  0  0  0  0  0  0  0  0  0  0
    0.0224   -0.1830    2.4109 N   0  3  0  0  0  0  0  0  0  0  0  0
    0.0488   -1.2464    3.4080 C   0  0  0  0  0  0  0  0  0  0  0  0
    0.0588   -2.5454    2.5945 C   0  0  0  0  0  0  0  0  0  0  0  0
    1.2913   -1.1442    4.3035 C   0  0  0  0  0  0  0  0  0  0  0  0
    0.7710   -0.4527    5.5900 C   0  0  0  0  0  0  0  0  0  0  0  0
   -0.6415   -1.0654    5.7639 C   0  0  0  0  0  0  0  0  0  0  0  0
   -1.1793   -1.1932    4.3215 C   0  0  0  0  0  0  0  0  0  0  0  0
    1.0048    1.8381    0.0023 H   0  0  0  0  0  0  0  0  0  0  0  0
   -0.5450    1.8219   -0.8730 H   0  0  0  0  0  0  0  0  0  0  0  0
   -0.5280    1.8123    0.9069 H   0  0  0  0  0  0  0  0  0  0  0  0
   -0.4895   -3.5883   -4.1455 H   0  0  0  0  0  0  0  0  0  0  0  0
   -0.5133   -1.8353   -3.8378 H   0  0  0  0  0  0  0  0  0  0  0  0
    1.5483   -0.5493   -3.8177 H   0  0  0  0  0  0  0  0  0  0  0  0
    3.8606   -0.3727   -4.6457 H   0  0  0  0  0  0  0  0  0  0  0  0
    5.0419   -2.3830   -5.4371 H   0  0  0  0  0  0  0  0  0  0  0  0
    3.9112   -4.5701   -5.3998 H   0  0  0  0  0  0  0  0  0  0  0  0
    1.6019   -4.7481   -4.5640 H   0  0  0  0  0  0  0  0  0  0  0  0
    0.5744   -5.4423   -3.2665 H   0  0  0  0  0  0  0  0  0  0  0  0
    0.5976   -6.2856   -1.6991 H   0  0  0  0  0  0  0  0  0  0  0  0
   -1.4647   -7.0630   -0.6759 H   0  0  0  0  0  0  0  0  0  0  0  0
   -3.7781   -7.8196   -1.0488 H   0  0  0  0  0  0  0  0  0  0  0  0
   -4.9592   -7.1955   -3.1173 H   0  0  0  0  0  0  0  0  0  0  0  0
   -3.8273   -5.8141   -4.8125 H   0  0  0  0  0  0  0  0  0  0  0  0
   -1.5169   -5.0505   -4.4358 H   0  0  0  0  0  0  0  0  0  0  0  0
   -0.8239   -3.1494    2.8048 H   0  0  0  0  0  0  0  0  0  0  0  0
    0.9698   -3.1088    2.7959 H   0  0  0  0  0  0  0  0  0  0  0  0
    1.6793   -2.1365    4.5333 H   0  0  0  0  0  0  0  0  0  0  0  0
    2.0579   -0.5344    3.8253 H   0  0  0  0  0  0  0  0  0  0  0  0
    1.4050   -0.6965    6.4424 H   0  0  0  0  0  0  0  0  0  0  0  0
    0.7090    0.6264    5.4499 H   0  0  0  0  0  0  0  0  0  0  0  0
   -0.5766   -2.0461    6.2351 H   0  0  0  0  0  0  0  0  0  0  0  0
   -1.2760   -0.4007    6.3501 H   0  0  0  0  0  0  0  0  0  0  0  0
   -1.7936   -0.3277    4.0730 H   0  0  0  0  0  0  0  0  0  0  0  0
   -1.7621   -2.1085    4.2190 H   0  0  0  0  0  0  0  0  0  0  0  0
    0.0071    0.7657    2.6125 H   0  0  0  0  0  0  0  0  0  0  0  0
  1  2  1  0  0  0  0
  1 33  1  0  0  0  0
  1 34  1  0  0  0  0
  1 35  1  0  0  0  0
  2 25  1  0  0  0  0
  2  3  1  0  0  0  0
  3  4  2  0  0  0  0
  3  5  1  0  0  0  0
  5  9  1  0  0  0  0
  5  6  2  0  0  0  0
  6  7  1  0  0  0  0
  6 24  1  0  0  0  0
  7  8  2  0  0  0  0
  8  9  1  0  0  0  0
  8 17  1  0  0  0  0
  9 10  1  0  0  0  0
 10 11  1  0  0  0  0
 10 36  1  0  0  0  0
 10 37  1  0  0  0  0
 11 16  2  0  0  0  0
 11 12  1  0  0  0  0
 12 13  2  0  0  0  0
 12 38  1  0  0  0  0
 13 14  1  0  0  0  0
 13 39  1  0  0  0  0
 14 15  2  0  0  0  0
 14 40  1  0  0  0  0
 15 16  1  0  0  0  0
 15 41  1  0  0  0  0
 16 42  1  0  0  0  0
 17 18  1  0  0  0  0
 17 43  1  0  0  0  0
 17 44  1  0  0  0  0
 18 23  2  0  0  0  0
 18 19  1  0  0  0  0
 19 20  2  0  0  0  0
 19 45  1  0  0  0  0
 20 21  1  0  0  0  0
 20 46  1  0  0  0  0
 21 22  2  0  0  0  0
 21 47  1  0  0  0  0
 22 23  1  0  0  0  0
 22 48  1  0  0  0  0
 23 49  1  0  0  0  0
 24 28  1  0  0  0  0
 24 25  1  0  0  0  0
 25 26  2  0  0  0  0
 26 27  1  0  0  0  0
 26 60  1  0  0  0  0
 27 32  1  0  0  0  0
 27 28  1  0  0  0  0
 27 29  1  0  0  0  0
 28 50  1  0  0  0  0
 28 51  1  0  0  0  0
 29 30  1  0  0  0  0
 29 52  1  0  0  0  0
 29 53  1  0  0  0  0
 30 31  1  0  0  0  0
 30 54  1  0  0  0  0
 30 55  1  0  0  0  0
 31 32  1  0  0  0  0
 31 56  1  0  0  0  0
 31 57  1  0  0  0  0
 32 58  1  0  0  0  0
 32 59  1  0  0  0  0
M  CHG  1  26   1
M  END
$$$$
CHEMBL1097782
  -OEChem-07121202283D

 64 67  0     0  0  0  0  0  0999 V2000
    0.4378    0.6832   -0.5462 C   0  0  0  0  0  0  0  0  0  0  0  0
    0.1895   -0.8198   -0.6880 C   0  0  0  0  0  0  0  0  0  0  0  0
   -1.2671   -1.1142   -0.4375 C   0  0  0  0  0  0  0  0  0  0  0  0
   -1.8418   -1.4110    0.8167 C   0  0  0  0  0  0  0  0  0  0  0  0
   -3.2150   -1.6174    0.5982 C   0  0  0  0  0  0  0  0  0  0  0  0
   -4.0275   -1.9320    1.6966 C   0  0  0  0  0  0  0  0  0  0  0  0
   -3.4680   -2.0221    2.8971 N   0  0  0  0  0  0  0  0  0  0  0  0
   -2.1661   -1.8204    3.0658 C   0  0  0  0  0  0  0  0  0  0  0  0
   -1.3618   -1.5222    2.0628 N   0  0  0  0  0  0  0  0  0  0  0  0
   -1.6332   -1.9264    4.3408 N   0  0  0  0  0  0  0  0  0  0  0  0
   -0.1897   -1.6794    4.5320 C   0  0  0  0  0  0  0  0  0  0  0  0
    0.0672   -0.8577    5.8082 C   0  0  0  0  0  0  0  0  0  0  0  0
   -0.9940    0.2122    5.9402 C   0  0  0  0  0  0  0  0  0  0  0  0
   -2.0850   -0.2906    6.7720 N   0  3  0  0  0  0  0  0  0  0  0  0
   -3.0936   -0.9899    6.0725 C   0  0  0  0  0  0  0  0  0  0  0  0
   -2.5131   -2.2696    5.4390 C   0  0  0  0  0  0  0  0  0  0  0  0
   -5.3869   -2.1441    1.5326 N   0  0  0  0  0  0  0  0  0  0  0  0
   -6.1521   -2.6098    2.5978 C   0  0  0  0  0  0  0  0  0  0  0  0
   -5.7052   -2.4217    3.9016 C   0  0  0  0  0  0  0  0  0  0  0  0
   -6.4755   -2.8897    4.9509 C   0  0  0  0  0  0  0  0  0  0  0  0
   -7.6716   -3.5324    4.6597 C   0  0  0  0  0  0  0  0  0  0  0  0
   -8.0540   -3.6846    3.3419 C   0  0  0  0  0  0  0  0  0  0  0  0
   -7.3013   -3.2231    2.3613 N   0  0  0  0  0  0  0  0  0  0  0  0
   -6.0268   -2.7065    6.3778 C   0  0  0  0  0  0  0  0  0  0  0  0
   -3.4320   -1.4455   -0.7439 N   0  0  0  0  0  0  0  0  0  0  0  0
   -2.2050   -1.1311   -1.3429 N   0  0  0  0  0  0  0  0  0  0  0  0
   -4.7207   -1.5640   -1.4304 C   0  0  0  0  0  0  0  0  0  0  0  0
   -5.4940   -0.2508   -1.2937 C   0  0  0  0  0  0  0  0  0  0  0  0
   -6.7510   -0.3664   -1.9634 O   0  0  0  0  0  0  0  0  0  0  0  0
   -7.5561    0.8123   -1.8958 C   0  0  0  0  0  0  0  0  0  0  0  0
   -8.8706    0.5756   -2.6421 C   0  0  0  0  0  0  0  0  0  0  0  0
    1.4913    0.8961   -0.7274 H   0  0  0  0  0  0  0  0  0  0  0  0
   -0.1718    1.2222   -1.2715 H   0  0  0  0  0  0  0  0  0  0  0  0
    0.1706    1.0021    0.4613 H   0  0  0  0  0  0  0  0  0  0  0  0
    0.4566   -1.1388   -1.6955 H   0  0  0  0  0  0  0  0  0  0  0  0
    0.7990   -1.3588    0.0373 H   0  0  0  0  0  0  0  0  0  0  0  0
    0.3292   -2.6347    4.6111 H   0  0  0  0  0  0  0  0  0  0  0  0
    0.1968   -1.1337    3.6713 H   0  0  0  0  0  0  0  0  0  0  0  0
    0.0307   -1.5148    6.6771 H   0  0  0  0  0  0  0  0  0  0  0  0
    1.0496   -0.3896    5.7474 H   0  0  0  0  0  0  0  0  0  0  0  0
   -0.5614    1.0986    6.4041 H   0  0  0  0  0  0  0  0  0  0  0  0
   -1.3776    0.4681    4.9525 H   0  0  0  0  0  0  0  0  0  0  0  0
   -1.6955   -0.9070    7.4694 H   0  0  0  0  0  0  0  0  0  0  0  0
   -3.8926   -1.2582    6.7637 H   0  0  0  0  0  0  0  0  0  0  0  0
   -3.4979   -0.3508    5.2875 H   0  0  0  0  0  0  0  0  0  0  0  0
   -3.3305   -2.8883    5.0687 H   0  0  0  0  0  0  0  0  0  0  0  0
   -1.9531   -2.8238    6.1923 H   0  0  0  0  0  0  0  0  0  0  0  0
   -5.8053   -1.9679    0.6754 H   0  0  0  0  0  0  0  0  0  0  0  0
   -4.7693   -1.9175    4.0921 H   0  0  0  0  0  0  0  0  0  0  0  0
   -8.2960   -3.9098    5.4559 H   0  0  0  0  0  0  0  0  0  0  0  0
   -8.9833   -4.1838    3.1109 H   0  0  0  0  0  0  0  0  0  0  0  0
   -6.4119   -1.7617    6.7613 H   0  0  0  0  0  0  0  0  0  0  0  0
   -6.4064   -3.5273    6.9863 H   0  0  0  0  0  0  0  0  0  0  0  0
   -4.9376   -2.6980    6.4179 H   0  0  0  0  0  0  0  0  0  0  0  0
   -4.5518   -1.7780   -2.4858 H   0  0  0  0  0  0  0  0  0  0  0  0
   -5.2976   -2.3735   -0.9833 H   0  0  0  0  0  0  0  0  0  0  0  0
   -5.6628   -0.0368   -0.2384 H   0  0  0  0  0  0  0  0  0  0  0  0
   -4.9171    0.5587   -1.7409 H   0  0  0  0  0  0  0  0  0  0  0  0
   -7.7678    1.0484   -0.8529 H   0  0  0  0  0  0  0  0  0  0  0  0
   -7.0220    1.6440   -2.3554 H   0  0  0  0  0  0  0  0  0  0  0  0
   -8.6590    0.3395   -3.6849 H   0  0  0  0  0  0  0  0  0  0  0  0
   -9.4047   -0.2560   -2.1824 H   0  0  0  0  0  0  0  0  0  0  0  0
   -9.4847    1.4747   -2.5905 H   0  0  0  0  0  0  0  0  0  0  0  0
   -2.5105    0.4918    7.2461 H   0  0  0  0  0  0  0  0  0  0  0  0
  1  2  1  0  0  0  0
  1 32  1  0  0  0  0
  1 33  1  0  0  0  0
  1 34  1  0  0  0  0
  2  3  1  0  0  0  0
  2 35  1  0  0  0  0
  2 36  1  0  0  0  0
  3 26  2  0  0  0  0
  3  4  1  0  0  0  0
  4  9  2  0  0  0  0
  4  5  1  0  0  0  0
  5  6  2  0  0  0  0
  5 25  1  0  0  0  0
  6  7  1  0  0  0  0
  6 17  1  0  0  0  0
  7  8  2  0  0  0  0
  8  9  1  0  0  0  0
  8 10  1  0  0  0  0
 10 16  1  0  0  0  0
 10 11  1  0  0  0  0
 11 12  1  0  0  0  0
 11 37  1  0  0  0  0
 11 38  1  0  0  0  0
 12 13  1  0  0  0  0
 12 39  1  0  0  0  0
 12 40  1  0  0  0  0
 13 14  1  0  0  0  0
 13 41  1  0  0  0  0
 13 42  1  0  0  0  0
 14 15  1  0  0  0  0
 14 43  1  0  0  0  0
 14 64  1  0  0  0  0
 15 16  1  0  0  0  0
 15 44  1  0  0  0  0
 15 45  1  0  0  0  0
 16 46  1  0  0  0  0
 16 47  1  0  0  0  0
 17 18  1  0  0  0  0
 17 48  1  0  0  0  0
 18 23  2  0  0  0  0
 18 19  1  0  0  0  0
 19 20  2  0  0  0  0
 19 49  1  0  0  0  0
 20 21  1  0  0  0  0
 20 24  1  0  0  0  0
 21 22  2  0  0  0  0
 21 50  1  0  0  0  0
 22 23  1  0  0  0  0
 22 51  1  0  0  0  0
 24 52  1  0  0  0  0
 24 53  1  0  0  0  0
 24 54  1  0  0  0  0
 25 26  1  0  0  0  0
 25 27  1  0  0  0  0
 27 28  1  0  0  0  0
 27 55  1  0  0  0  0
 27 56  1  0  0  0  0
 28 29  1  0  0  0  0
 28 57  1  0  0  0  0
 28 58  1  0  0  0  0
 29 30  1  0  0  0  0
 30 31  1  0  0  0  0
 30 59  1  0  0  0  0
 30 60  1  0  0  0  0
 31 61  1  0  0  0  0
 31 62  1  0  0  0  0
 31 63  1  0  0  0  0
M  CHG  1  14   1
M  END
$$$$
CHEMBL1097782
  -OEChem-07121202283D

 65 68  0     0  0  0  0  0  0999 V2000
    0.5008    0.4493   -0.6087 C   0  0  0  0  0  0  0  0  0  0  0  0
    0.1869   -1.0422   -0.7420 C   0  0  0  0  0  0  0  0  0  0  0  0
   -1.2786   -1.2728   -0.4768 C   0  0  0  0  0  0  0  0  0  0  0  0
   -1.8536   -1.5400    0.7839 C   0  0  0  0  0  0  0  0  0  0  0  0
   -3.2364   -1.6880    0.5790 C   0  0  0  0  0  0  0  0  0  0  0  0
   -4.0513   -1.9633    1.6862 C   0  0  0  0  0  0  0  0  0  0  0  0
   -3.4848   -2.0728    2.8819 N   0  0  0  0  0  0  0  0  0  0  0  0
   -2.1739   -1.9266    3.0377 C   0  0  0  0  0  0  0  0  0  0  0  0
   -1.3671   -1.6670    2.0260 N   0  0  0  0  0  0  0  0  0  0  0  0
   -1.6341   -2.0505    4.3081 N   0  0  0  0  0  0  0  0  0  0  0  0
   -0.1807   -1.8575    4.4861 C   0  0  0  0  0  0  0  0  0  0  0  0
    0.1181   -1.0441    5.7585 C   0  0  0  0  0  0  0  0  0  0  0  0
   -0.9011    0.0650    5.8978 C   0  0  0  0  0  0  0  0  0  0  0  0
   -2.0027   -0.3954    6.7402 N   0  3  0  0  0  0  0  0  0  0  0  0
   -3.0429   -1.0574    6.0509 C   0  0  0  0  0  0  0  0  0  0  0  0
   -2.5164   -2.3589    5.4147 C   0  0  0  0  0  0  0  0  0  0  0  0
   -5.4200   -2.1174    1.5357 N   0  0  0  0  0  0  0  0  0  0  0  0
   -6.1906   -2.5715    2.6020 C   0  0  0  0  0  0  0  0  0  0  0  0
   -5.7452   -2.3786    3.9057 C   0  0  0  0  0  0  0  0  0  0  0  0
   -6.5210   -2.8349    4.9560 C   0  0  0  0  0  0  0  0  0  0  0  0
   -7.7208   -3.4712    4.6661 C   0  0  0  0  0  0  0  0  0  0  0  0
   -8.1014   -3.6286    3.3485 C   0  0  0  0  0  0  0  0  0  0  0  0
   -7.3435   -3.1782    2.3667 N   0  3  0  0  0  0  0  0  0  0  0  0
   -6.0740   -2.6463    6.3828 C   0  0  0  0  0  0  0  0  0  0  0  0
   -3.4584   -1.5120   -0.7617 N   0  0  0  0  0  0  0  0  0  0  0  0
   -2.2248   -1.2528   -1.3734 N   0  0  0  0  0  0  0  0  0  0  0  0
   -4.7575   -1.5776   -1.4358 C   0  0  0  0  0  0  0  0  0  0  0  0
   -5.4814   -0.2388   -1.2793 C   0  0  0  0  0  0  0  0  0  0  0  0
   -6.7485   -0.3027   -1.9368 O   0  0  0  0  0  0  0  0  0  0  0  0
   -7.5098    0.9035   -1.8503 C   0  0  0  0  0  0  0  0  0  0  0  0
   -8.8395    0.7212   -2.5848 C   0  0  0  0  0  0  0  0  0  0  0  0
    1.5607    0.6161   -0.8005 H   0  0  0  0  0  0  0  0  0  0  0  0
   -0.0919    1.0112   -1.3306 H   0  0  0  0  0  0  0  0  0  0  0  0
    0.2571    0.7832    0.3998 H   0  0  0  0  0  0  0  0  0  0  0  0
    0.4306   -1.3761   -1.7505 H   0  0  0  0  0  0  0  0  0  0  0  0
    0.7796   -1.6041   -0.0201 H   0  0  0  0  0  0  0  0  0  0  0  0
    0.3028   -2.8315    4.5624 H   0  0  0  0  0  0  0  0  0  0  0  0
    0.2183   -1.3279    3.6210 H   0  0  0  0  0  0  0  0  0  0  0  0
    0.0648   -1.6981    6.6289 H   0  0  0  0  0  0  0  0  0  0  0  0
    1.1168   -0.6132    5.6882 H   0  0  0  0  0  0  0  0  0  0  0  0
   -0.4315    0.9353    6.3563 H   0  0  0  0  0  0  0  0  0  0  0  0
   -1.2836    0.3336    4.9131 H   0  0  0  0  0  0  0  0  0  0  0  0
   -1.6304   -1.0249    7.4353 H   0  0  0  0  0  0  0  0  0  0  0  0
   -3.8453   -1.2945    6.7496 H   0  0  0  0  0  0  0  0  0  0  0  0
   -3.4300   -0.4048    5.2683 H   0  0  0  0  0  0  0  0  0  0  0  0
   -3.3596   -2.9471    5.0527 H   0  0  0  0  0  0  0  0  0  0  0  0
   -1.9709   -2.9326    6.1640 H   0  0  0  0  0  0  0  0  0  0  0  0
   -5.8411   -1.9088    0.6871 H   0  0  0  0  0  0  0  0  0  0  0  0
   -4.8062   -1.8797    4.0951 H   0  0  0  0  0  0  0  0  0  0  0  0
   -8.3495   -3.8394    5.4632 H   0  0  0  0  0  0  0  0  0  0  0  0
   -9.0337   -4.1228    3.1184 H   0  0  0  0  0  0  0  0  0  0  0  0
   -6.4534   -1.6965    6.7598 H   0  0  0  0  0  0  0  0  0  0  0  0
   -6.4605   -3.4608    6.9953 H   0  0  0  0  0  0  0  0  0  0  0  0
   -4.9848   -2.6450    6.4252 H   0  0  0  0  0  0  0  0  0  0  0  0
   -4.6071   -1.7877   -2.4947 H   0  0  0  0  0  0  0  0  0  0  0  0
   -5.3586   -2.3700   -0.9899 H   0  0  0  0  0  0  0  0  0  0  0  0
   -5.6318   -0.0286   -0.2204 H   0  0  0  0  0  0  0  0  0  0  0  0
   -4.8803    0.5536   -1.7252 H   0  0  0  0  0  0  0  0  0  0  0  0
   -7.7022    1.1374   -0.8032 H   0  0  0  0  0  0  0  0  0  0  0  0
   -6.9507    1.7196   -2.3080 H   0  0  0  0  0  0  0  0  0  0  0  0
   -9.4202    1.6413   -2.5188 H   0  0  0  0  0  0  0  0  0  0  0  0
   -8.6471    0.4874   -3.6319 H   0  0  0  0  0  0  0  0  0  0  0  0
   -9.3986   -0.0949   -2.1271 H   0  0  0  0  0  0  0  0  0  0  0  0
   -2.3943    0.4032    7.2166 H   0  0  0  0  0  0  0  0  0  0  0  0
   -7.6363   -3.2983    1.4498 H   0  0  0  0  0  0  0  0  0  0  0  0
  1  2  1  0  0  0  0
  1 32  1  0  0  0  0
  1 33  1  0  0  0  0
  1 34  1  0  0  0  0
  2  3  1  0  0  0  0
  2 35  1  0  0  0  0
  2 36  1  0  0  0  0
  3 26  2  0  0  0  0
  3  4  1  0  0  0  0
  4  9  2  0  0  0  0
  4  5  1  0  0  0  0
  5  6  2  0  0  0  0
  5 25  1  0  0  0  0
  6  7  1  0  0  0  0
  6 17  1  0  0  0  0
  7  8  2  0  0  0  0
  8  9  1  0  0  0  0
  8 10  1  0  0  0  0
 10 16  1  0  0  0  0
 10 11  1  0  0  0  0
 11 12  1  0  0  0  0
 11 37  1  0  0  0  0
 11 38  1  0  0  0  0
 12 13  1  0  0  0  0
 12 39  1  0  0  0  0
 12 40  1  0  0  0  0
 13 14  1  0  0  0  0
 13 41  1  0  0  0  0
 13 42  1  0  0  0  0
 14 15  1  0  0  0  0
 14 43  1  0  0  0  0
 14 64  1  0  0  0  0
 15 16  1  0  0  0  0
 15 44  1  0  0  0  0
 15 45  1  0  0  0  0
 16 46  1  0  0  0  0
 16 47  1  0  0  0  0
 17 18  1  0  0  0  0
 17 48  1  0  0  0  0
 18 23  2  0  0  0  0
 18 19  1  0  0  0  0
 19 20  2  0  0  0  0
 19 49  1  0  0  0  0
 20 21  1  0  0  0  0
 20 24  1  0  0  0  0
 21 22  2  0  0  0  0
 21 50  1  0  0  0  0
 22 23  1  0  0  0  0
 22 51  1  0  0  0  0
 23 65  1  0  0  0  0
 24 52  1  0  0  0  0
 24 53  1  0  0  0  0
 24 54  1  0  0  0  0
 25 26  1  0  0  0  0
 25 27  1  0  0  0  0
 27 28  1  0  0  0  0
 27 55  1  0  0  0  0
 27 56  1  0  0  0  0
 28 29  1  0  0  0  0
 28 57  1  0  0  0  0
 28 58  1  0  0  0  0
 29 30  1  0  0  0  0
 30 31  1  0  0  0  0
 30 59  1  0  0  0  0
 30 60  1  0  0  0  0
 31 61  1  0  0  0  0
 31 62  1  0  0  0  0
 31 63  1  0  0  0  0
M  CHG  2  14   1  23   1
M  END
$$$$
CHEMBL140493
  -OEChem-07121202283D

 50 54  0     1  0  0  0  0  0999 V2000
   -0.0187    1.5258    0.0104 C   0  0  0  0  0  0  0  0  0  0  0  0
    0.0021   -0.0041    0.0020 C   0  0  0  0  0  0  0  0  0  0  0  0
    0.7182   -0.4975   -1.2568 C   0  0  0  0  0  0  0  0  0  0  0  0
    0.7390   -2.0273   -1.2652 C   0  0  0  0  0  0  0  0  0  0  0  0
    1.4247   -2.4998   -2.4705 N   0  0  0  0  0  0  0  0  0  0  0  0
    0.8083   -2.7491   -3.6439 C   0  0  0  0  0  0  0  0  0  0  0  0
   -0.3703   -2.6137   -3.8937 O   0  0  0  0  0  0  0  0  0  0  0  0
    1.8919   -3.2328   -4.5861 C   0  0  1  0  0  0  0  0  0  0  0  0
    1.7099   -4.2546   -4.9192 H   0  0  0  0  0  0  0  0  0  0  0  0
    2.0140   -2.2664   -5.7703 C   0  0  0  0  0  0  0  0  0  0  0  0
    3.4089   -2.3458   -6.3383 C   0  0  0  0  0  0  0  0  0  0  0  0
    3.8501   -1.9245   -7.6553 C   0  0  0  0  0  0  0  0  0  0  0  0
    3.1758   -1.3567   -8.7406 C   0  0  0  0  0  0  0  0  0  0  0  0
    3.9241   -1.0786   -9.8580 C   0  0  0  0  0  0  0  0  0  0  0  0
    5.2825   -1.3437   -9.9190 C   0  0  0  0  0  0  0  0  0  0  0  0
    5.9743   -1.9046   -8.8593 C   0  0  0  0  0  0  0  0  0  0  0  0
    5.2404   -2.1972   -7.7113 C   0  0  0  0  0  0  0  0  0  0  0  0
    5.5958   -2.7406   -6.5107 N   0  0  0  0  0  0  0  0  0  0  0  0
    6.4919   -3.0222   -6.2685 H   0  0  0  0  0  0  0  0  0  0  0  0
    4.4959   -2.8277   -5.6997 C   0  0  0  0  0  0  0  0  0  0  0  0
    4.4634   -3.3875   -4.2911 C   0  0  2  0  0  0  0  0  0  0  0  0
    4.6429   -4.4624   -4.3112 H   0  0  0  0  0  0  0  0  0  0  0  0
    3.1158   -3.1349   -3.7607 N   0  0  0  0  0  0  0  0  0  0  0  0
    2.7432   -2.7321   -2.5446 C   0  0  0  0  0  0  0  0  0  0  0  0
    3.5096   -2.5946   -1.6113 O   0  0  0  0  0  0  0  0  0  0  0  0
    5.5027   -2.7056   -3.4391 C   0  0  0  0  0  0  0  0  0  0  0  0
    6.7209   -3.3202   -3.1914 C   0  0  0  0  0  0  0  0  0  0  0  0
    7.6467   -2.6557   -2.4021 C   0  0  0  0  0  0  0  0  0  0  0  0
    7.3271   -1.4115   -1.8917 C   0  0  0  0  0  0  0  0  0  0  0  0
    6.1583   -0.8575   -2.1477 N   0  0  0  0  0  0  0  0  0  0  0  0
    5.2560   -1.4577   -2.8994 C   0  0  0  0  0  0  0  0  0  0  0  0
    1.0039    1.9031    0.0027 H   0  0  0  0  0  0  0  0  0  0  0  0
   -0.5459    1.8868   -0.8726 H   0  0  0  0  0  0  0  0  0  0  0  0
   -0.5289    1.8773    0.9072 H   0  0  0  0  0  0  0  0  0  0  0  0
    0.5293   -0.3651    0.8851 H   0  0  0  0  0  0  0  0  0  0  0  0
   -1.0205   -0.3814    0.0098 H   0  0  0  0  0  0  0  0  0  0  0  0
    0.1910   -0.1364   -2.1398 H   0  0  0  0  0  0  0  0  0  0  0  0
    1.7408   -0.1202   -1.2645 H   0  0  0  0  0  0  0  0  0  0  0  0
    1.2661   -2.3884   -0.3821 H   0  0  0  0  0  0  0  0  0  0  0  0
   -0.2836   -2.4046   -1.2575 H   0  0  0  0  0  0  0  0  0  0  0  0
    1.2920   -2.5407   -6.5395 H   0  0  0  0  0  0  0  0  0  0  0  0
    1.8165   -1.2494   -5.4316 H   0  0  0  0  0  0  0  0  0  0  0  0
    2.1171   -1.1471   -8.7021 H   0  0  0  0  0  0  0  0  0  0  0  0
    3.4380   -0.6396  -10.7167 H   0  0  0  0  0  0  0  0  0  0  0  0
    5.8201   -1.1049  -10.8247 H   0  0  0  0  0  0  0  0  0  0  0  0
    7.0336   -2.1063   -8.9196 H   0  0  0  0  0  0  0  0  0  0  0  0
    6.9429   -4.2935   -3.6035 H   0  0  0  0  0  0  0  0  0  0  0  0
    8.6054   -3.1046   -2.1883 H   0  0  0  0  0  0  0  0  0  0  0  0
    8.0428   -0.8873   -1.2759 H   0  0  0  0  0  0  0  0  0  0  0  0
    4.3116   -0.9703   -3.0916 H   0  0  0  0  0  0  0  0  0  0  0  0
  1  2  1  0  0  0  0
  1 32  1  0  0  0  0
  1 33  1  0  0  0  0
  1 34  1  0  0  0  0
  2  3  1  0  0  0  0
  2 35  1  0  0  0  0
  2 36  1  0  0  0  0
  3  4  1  0  0  0  0
  3 37  1  0  0  0  0
  3 38  1  0  0  0  0
  4  5  1  0  0  0  0
  4 39  1  0  0  0  0
  4 40  1  0  0  0  0
  5 24  1  0  0  0  0
  5  6  1  0  0  0  0
  6  7  2  0  0  0  0
  6  8  1  0  0  0  0
  8  9  1  0  0  0  0
  8 23  1  0  0  0  0
  8 10  1  0  0  0  0
 10 11  1  0  0  0  0
 10 41  1  0  0  0  0
 10 42  1  0  0  0  0
 11 20  2  0  0  0  0
 11 12  1  0  0  0  0
 12 17  2  0  0  0  0
 12 13  1  0  0  0  0
 13 14  2  0  0  0  0
 13 43  1  0  0  0  0
 14 15  1  0  0  0  0
 14 44  1  0  0  0  0
 15 16  2  0  0  0  0
 15 45  1  0  0  0  0
 16 17  1  0  0  0  0
 16 46  1  0  0  0  0
 17 18  1  0  0  0  0
 18 19  1  0  0  0  0
 18 20  1  0  0  0  0
 20 21  1  0  0  0  0
 21 22  1  0  0  0  0
 21 23  1  0  0  0  0
 21 26  1  0  0  0  0
 23 24  1  0  0  0  0
 24 25  2  0  0  0  0
 26 31  2  0  0  0  0
 26 27  1  0  0  0  0
 27 28  2  0  0  0  0
 27 47  1  0  0  0  0
 28 29  1  0  0  0  0
 28 48  1  0  0  0  0
 29 30  2  0  0  0  0
 29 49  1  0  0  0  0
 30 31  1  0  0  0  0
 31 50  1  0  0  0  0
M  END
$$$$
CHEMBL141980
  -OEChem-07121202283D

 48 52  0     1  0  0  0  0  0999 V2000
   -0.0187    1.5258    0.0104 C   0  0  0  0  0  0  0  0  0  0  0  0
    0.0021   -0.0041    0.0020 C   0  0  0  0  0  0  0  0  0  0  0  0
    0.7421   -0.5109    1.2415 C   0  0  0  0  0  0  0  0  0  0  0  0
    0.7628   -2.0407    1.2331 C   0  0  0  0  0  0  0  0  0  0  0  0
    1.4714   -2.5260    2.4200 N   0  0  0  0  0  0  0  0  0  0  0  0
    2.7995   -2.7558    2.4680 C   0  0  0  0  0  0  0  0  0  0  0  0
    3.6026   -2.5899    1.5751 O   0  0  0  0  0  0  0  0  0  0  0  0
    3.0815   -3.2632    3.8675 C   0  0  1  0  0  0  0  0  0  0  0  0
    3.4768   -4.2789    3.8561 H   0  0  0  0  0  0  0  0  0  0  0  0
    4.0310   -2.2960    4.5847 C   0  0  0  0  0  0  0  0  0  0  0  0
    3.8271   -2.4084    6.0748 C   0  0  0  0  0  0  0  0  0  0  0  0
    4.7406   -1.9937    7.1236 C   0  0  0  0  0  0  0  0  0  0  0  0
    6.0086   -1.4053    7.0938 C   0  0  0  0  0  0  0  0  0  0  0  0
    6.5981   -1.1422    8.3058 C   0  0  0  0  0  0  0  0  0  0  0  0
    5.9762   -1.4412    9.5071 C   0  0  0  0  0  0  0  0  0  0  0  0
    4.7215   -2.0229    9.5652 C   0  0  0  0  0  0  0  0  0  0  0  0
    4.0986   -2.3010    8.3500 C   0  0  0  0  0  0  0  0  0  0  0  0
    2.8897   -2.8574    8.0465 N   0  0  0  0  0  0  0  0  0  0  0  0
    2.2365   -3.1622    8.6956 H   0  0  0  0  0  0  0  0  0  0  0  0
    2.7383   -2.9197    6.6870 C   0  0  0  0  0  0  0  0  0  0  0  0
    1.5434   -3.4834    5.9434 C   0  0  2  0  0  0  0  0  0  0  0  0
    1.4879   -4.5624    6.0874 H   0  0  0  0  0  0  0  0  0  0  0  0
    1.7535   -3.1989    4.5165 N   0  0  0  0  0  0  0  0  0  0  0  0
    0.8802   -2.7911    3.5940 C   0  0  0  0  0  0  0  0  0  0  0  0
   -0.3131   -2.6762    3.7937 O   0  0  0  0  0  0  0  0  0  0  0  0
    0.2755   -2.8308    6.4310 C   0  0  0  0  0  0  0  0  0  0  0  0
   -0.6449   -3.3676    7.3602 C   0  0  0  0  0  0  0  0  0  0  0  0
   -1.6250   -2.4583    7.5077 C   0  0  0  0  0  0  0  0  0  0  0  0
   -1.3486   -1.4051    6.7214 O   0  0  0  0  0  0  0  0  0  0  0  0
   -0.1946   -1.6233    6.0699 C   0  0  0  0  0  0  0  0  0  0  0  0
    1.0039    1.9031    0.0027 H   0  0  0  0  0  0  0  0  0  0  0  0
   -0.5459    1.8868   -0.8726 H   0  0  0  0  0  0  0  0  0  0  0  0
   -0.5289    1.8773    0.9072 H   0  0  0  0  0  0  0  0  0  0  0  0
   -1.0205   -0.3814    0.0098 H   0  0  0  0  0  0  0  0  0  0  0  0
    0.5123   -0.3556   -0.8948 H   0  0  0  0  0  0  0  0  0  0  0  0
    1.7647   -0.1336    1.2338 H   0  0  0  0  0  0  0  0  0  0  0  0
    0.2319   -0.1594    2.1383 H   0  0  0  0  0  0  0  0  0  0  0  0
   -0.2598   -2.4180    1.2409 H   0  0  0  0  0  0  0  0  0  0  0  0
    1.2730   -2.3923    0.3363 H   0  0  0  0  0  0  0  0  0  0  0  0
    5.0622   -2.5493    4.3386 H   0  0  0  0  0  0  0  0  0  0  0  0
    3.8205   -1.2755    4.2647 H   0  0  0  0  0  0  0  0  0  0  0  0
    6.5011   -1.1694    6.1620 H   0  0  0  0  0  0  0  0  0  0  0  0
    7.5779   -0.6881    8.3231 H   0  0  0  0  0  0  0  0  0  0  0  0
    6.4882   -1.2128   10.4302 H   0  0  0  0  0  0  0  0  0  0  0  0
    4.2475   -2.2509   10.5084 H   0  0  0  0  0  0  0  0  0  0  0  0
   -0.5748   -4.3245    7.8561 H   0  0  0  0  0  0  0  0  0  0  0  0
   -2.4881   -2.5582    8.1492 H   0  0  0  0  0  0  0  0  0  0  0  0
    0.2749   -0.9454    5.3725 H   0  0  0  0  0  0  0  0  0  0  0  0
  1  2  1  0  0  0  0
  1 31  1  0  0  0  0
  1 32  1  0  0  0  0
  1 33  1  0  0  0  0
  2  3  1  0  0  0  0
  2 34  1  0  0  0  0
  2 35  1  0  0  0  0
  3  4  1  0  0  0  0
  3 36  1  0  0  0  0
  3 37  1  0  0  0  0
  4  5  1  0  0  0  0
  4 38  1  0  0  0  0
  4 39  1  0  0  0  0
  5 24  1  0  0  0  0
  5  6  1  0  0  0  0
  6  7  2  0  0  0  0
  6  8  1  0  0  0  0
  8  9  1  0  0  0  0
  8 23  1  0  0  0  0
  8 10  1  0  0  0  0
 10 11  1  0  0  0  0
 10 40  1  0  0  0  0
 10 41  1  0  0  0  0
 11 20  2  0  0  0  0
 11 12  1  0  0  0  0
 12 17  2  0  0  0  0
 12 13  1  0  0  0  0
 13 14  2  0  0  0  0
 13 42  1  0  0  0  0
 14 15  1  0  0  0  0
 14 43  1  0  0  0  0
 15 16  2  0  0  0  0
 15 44  1  0  0  0  0
 16 17  1  0  0  0  0
 16 45  1  0  0  0  0
 17 18  1  0  0  0  0
 18 19  1  0  0  0  0
 18 20  1  0  0  0  0
 20 21  1  0  0  0  0
 21 22  1  0  0  0  0
 21 23  1  0  0  0  0
 21 26  1  0  0  0  0
 23 24  1  0  0  0  0
 24 25  2  0  0  0  0
 26 30  2  0  0  0  0
 26 27  1  0  0  0  0
 27 28  2  0  0  0  0
 27 46  1  0  0  0  0
 28 29  1  0  0  0  0
 28 47  1  0  0  0  0
 29 30  1  0  0  0  0
 30 48  1  0  0  0  0
M  END
$$$$
CHEMBL286309
  -OEChem-07121202283D

 75 82  0     1  0  0  0  0  0999 V2000
   -0.2374    1.1659    0.2459 C   0  0  0  0  0  0  0  0  0  0  0  0
    0.8882    1.9729    0.2738 C   0  0  0  0  0  0  0  0  0  0  0  0
    2.1706    1.4540    0.2285 C   0  0  0  0  0  0  0  0  0  0  0  0
    2.2880    0.0677    0.1521 C   0  0  0  0  0  0  0  0  0  0  0  0
    1.1318   -0.7537    0.1227 C   0  0  0  0  0  0  0  0  0  0  0  0
   -0.1522   -0.2024    0.1707 C   0  0  0  0  0  0  0  0  0  0  0  0
    1.6121   -2.1181    0.0402 C   0  0  0  0  0  0  0  0  0  0  0  0
    2.9614   -2.0616    0.0242 C   0  0  0  0  0  0  0  0  0  0  0  0
    3.3740   -0.7575    0.0940 N   0  0  0  0  0  0  0  0  0  0  0  0
    4.2987   -0.4643    0.1011 H   0  0  0  0  0  0  0  0  0  0  0  0
    3.8472   -3.2835   -0.0649 C   0  0  2  0  0  0  0  0  0  0  0  0
    4.3051   -3.3376   -1.0526 H   0  0  0  0  0  0  0  0  0  0  0  0
    2.9920   -4.4687    0.1577 N   0  0  0  0  0  0  0  0  0  0  0  0
    1.7051   -4.5223   -0.5346 C   0  0  2  0  0  0  0  0  0  0  0  0
    1.8731   -4.3771   -1.6017 H   0  0  0  0  0  0  0  0  0  0  0  0
    0.8064   -3.3907   -0.0162 C   0  0  0  0  0  0  0  0  0  0  0  0
    1.0101   -5.8294   -0.3288 C   0  0  0  0  0  0  0  0  0  0  0  0
   -0.0244   -6.0235   -0.9313 O   0  0  0  0  0  0  0  0  0  0  0  0
    1.4547   -6.7945    0.4737 N   0  0  0  0  0  0  0  0  0  0  0  0
    2.6795   -6.6995    1.2504 C   0  0  0  0  0  0  0  0  0  0  0  0
    3.4213   -5.4330    0.9745 C   0  0  0  0  0  0  0  0  0  0  0  0
    4.4727   -5.2575    1.5530 O   0  0  0  0  0  0  0  0  0  0  0  0
    0.6634   -8.0228    0.5803 C   0  0  2  0  0  0  0  0  0  0  0  0
   -0.2290   -7.9523   -0.0416 H   0  0  0  0  0  0  0  0  0  0  0  0
    0.2720   -8.2829    2.0531 C   0  0  0  0  0  0  0  0  0  0  0  0
    0.4185   -9.8197    2.1843 C   0  0  0  0  0  0  0  0  0  0  0  0
    1.6128  -10.1194    1.3536 N   0  3  2  0  0  0  0  0  0  0  0  0
    1.5090   -9.2411    0.1653 C   0  0  0  0  0  0  0  0  0  0  0  0
    1.6027  -11.5296    0.9421 C   0  0  0  0  0  0  0  0  0  0  0  0
    1.7799  -12.4213    2.1727 C   0  0  0  0  0  0  0  0  0  0  0  0
    1.7695  -13.8679    1.7505 C   0  0  0  0  0  0  0  0  0  0  0  0
    1.6337  -14.1572    0.5806 O   0  0  0  0  0  0  0  0  0  0  0  0
    1.9112  -14.8401    2.6731 N   0  0  0  0  0  0  0  0  0  0  0  0
    2.0859  -14.8981    4.1322 C   0  0  0  0  0  0  0  0  0  0  0  0
    2.8112  -16.2369    3.9378 C   0  0  0  0  0  0  0  0  0  0  0  0
    1.9524  -16.3102    2.6645 C   0  0  0  0  0  0  0  0  0  0  0  0
    4.9185   -3.2175    0.9929 C   0  0  0  0  0  0  0  0  0  0  0  0
    6.2447   -3.3922    0.6433 C   0  0  0  0  0  0  0  0  0  0  0  0
    7.2311   -3.3320    1.6099 C   0  0  0  0  0  0  0  0  0  0  0  0
    6.8923   -3.0967    2.9326 C   0  0  0  0  0  0  0  0  0  0  0  0
    5.5564   -2.9208    3.2847 C   0  0  0  0  0  0  0  0  0  0  0  0
    4.5737   -2.9767    2.3097 C   0  0  0  0  0  0  0  0  0  0  0  0
    5.4847   -2.7062    4.6308 O   0  0  0  0  0  0  0  0  0  0  0  0
    6.7454   -3.1578    5.1598 C   0  0  0  0  0  0  0  0  0  0  0  0
    7.6575   -2.9923    4.0581 O   0  0  0  0  0  0  0  0  0  0  0  0
   -1.2129    1.6275    0.2892 H   0  0  0  0  0  0  0  0  0  0  0  0
    0.7608    3.0438    0.3326 H   0  0  0  0  0  0  0  0  0  0  0  0
    3.0401    2.0942    0.2509 H   0  0  0  0  0  0  0  0  0  0  0  0
   -1.0354   -0.8236    0.1495 H   0  0  0  0  0  0  0  0  0  0  0  0
    0.4453   -3.6391    0.9818 H   0  0  0  0  0  0  0  0  0  0  0  0
   -0.0396   -3.2579   -0.6905 H   0  0  0  0  0  0  0  0  0  0  0  0
    2.4316   -6.7519    2.3105 H   0  0  0  0  0  0  0  0  0  0  0  0
    3.3254   -7.5403    0.9974 H   0  0  0  0  0  0  0  0  0  0  0  0
    0.9559   -7.7710    2.7301 H   0  0  0  0  0  0  0  0  0  0  0  0
   -0.7575   -7.9764    2.2385 H   0  0  0  0  0  0  0  0  0  0  0  0
    0.5914  -10.1024    3.2227 H   0  0  0  0  0  0  0  0  0  0  0  0
   -0.4622  -10.3254    1.7884 H   0  0  0  0  0  0  0  0  0  0  0  0
    1.0187   -9.7732   -0.6498 H   0  0  0  0  0  0  0  0  0  0  0  0
    2.5021   -8.9156   -0.1444 H   0  0  0  0  0  0  0  0  0  0  0  0
    0.6528  -11.7605    0.4598 H   0  0  0  0  0  0  0  0  0  0  0  0
    2.4187  -11.7097    0.2423 H   0  0  0  0  0  0  0  0  0  0  0  0
    2.7298  -12.1903    2.6549 H   0  0  0  0  0  0  0  0  0  0  0  0
    0.9639  -12.2411    2.8725 H   0  0  0  0  0  0  0  0  0  0  0  0
    2.7282  -14.1094    4.5241 H   0  0  0  0  0  0  0  0  0  0  0  0
    1.1471  -14.9883    4.6786 H   0  0  0  0  0  0  0  0  0  0  0  0
    3.8815  -16.1428    3.7541 H   0  0  0  0  0  0  0  0  0  0  0  0
    2.5645  -16.9914    4.6848 H   0  0  0  0  0  0  0  0  0  0  0  0
    0.9783  -16.7727    2.8240 H   0  0  0  0  0  0  0  0  0  0  0  0
    2.4809  -16.7246    1.8060 H   0  0  0  0  0  0  0  0  0  0  0  0
    6.5106   -3.5765   -0.3871 H   0  0  0  0  0  0  0  0  0  0  0  0
    8.2662   -3.4689    1.3340 H   0  0  0  0  0  0  0  0  0  0  0  0
    3.5373   -2.8361    2.5792 H   0  0  0  0  0  0  0  0  0  0  0  0
    7.0495   -2.5402    6.0049 H   0  0  0  0  0  0  0  0  0  0  0  0
    6.6845   -4.2060    5.4525 H   0  0  0  0  0  0  0  0  0  0  0  0
    2.4555   -9.9118    1.8681 H   0  0  0  0  0  0  0  0  0  0  0  0
  1  6  2  0  0  0  0
  1  2  1  0  0  0  0
  1 46  1  0  0  0  0
  2  3  2  0  0  0  0
  2 47  1  0  0  0  0
  3  4  1  0  0  0  0
  3 48  1  0  0  0  0
  4  9  1  0  0  0  0
  4  5  2  0  0  0  0
  5  6  1  0  0  0  0
  5  7  1  0  0  0  0
  6 49  1  0  0  0  0
  7 16  1  0  0  0  0
  7  8  2  0  0  0  0
  8  9  1  0  0  0  0
  8 11  1  0  0  0  0
  9 10  1  0  0  0  0
 11 12  1  0  0  0  0
 11 13  1  0  0  0  0
 11 37  1  0  0  0  0
 13 21  1  0  0  0  0
 13 14  1  0  0  0  0
 14 15  1  0  0  0  0
 14 16  1  0  0  0  0
 14 17  1  0  0  0  0
 16 50  1  0  0  0  0
 16 51  1  0  0  0  0
 17 18  2  0  0  0  0
 17 19  1  0  0  0  0
 19 20  1  0  0  0  0
 19 23  1  0  0  0  0
 20 21  1  0  0  0  0
 20 52  1  0  0  0  0
 20 53  1  0  0  0  0
 21 22  2  0  0  0  0
 23 24  1  0  0  0  0
 23 28  1  0  0  0  0
 23 25  1  0  0  0  0
 25 26  1  0  0  0  0
 25 54  1  0  0  0  0
 25 55  1  0  0  0  0
 26 27  1  0  0  0  0
 26 56  1  0  0  0  0
 26 57  1  0  0  0  0
 27 28  1  0  0  0  0
 27 29  1  0  0  0  0
 27 75  1  0  0  0  0
 28 58  1  0  0  0  0
 28 59  1  0  0  0  0
 29 30  1  0  0  0  0
 29 60  1  0  0  0  0
 29 61  1  0  0  0  0
 30 31  1  0  0  0  0
 30 62  1  0  0  0  0
 30 63  1  0  0  0  0
 31 32  2  0  0  0  0
 31 33  1  0  0  0  0
 33 36  1  0  0  0  0
 33 34  1  0  0  0  0
 34 35  1  0  0  0  0
 34 64  1  0  0  0  0
 34 65  1  0  0  0  0
 35 36  1  0  0  0  0
 35 66  1  0  0  0  0
 35 67  1  0  0  0  0
 36 68  1  0  0  0  0
 36 69  1  0  0  0  0
 37 42  2  0  0  0  0
 37 38  1  0  0  0  0
 38 39  2  0  0  0  0
 38 70  1  0  0  0  0
 39 40  1  0  0  0  0
 39 71  1  0  0  0  0
 40 45  1  0  0  0  0
 40 41  2  0  0  0  0
 41 42  1  0  0  0  0
 41 43  1  0  0  0  0
 42 72  1  0  0  0  0
 43 44  1  0  0  0  0
 44 45  1  0  0  0  0
 44 73  1  0  0  0  0
 44 74  1  0  0  0  0
M  CHG  1  27   1
M  END
$$$$
CHEMBL1098751
  -OEChem-07121202283D

 66 69  0     0  0  0  0  0  0999 V2000
   -0.9354    1.0831   -0.0459 C   0  0  0  0  0  0  0  0  0  0  0  0
   -0.3170   -0.3159   -0.0125 C   0  0  0  0  0  0  0  0  0  0  0  0
    0.6249   -0.4768   -1.1778 C   0  0  0  0  0  0  0  0  0  0  0  0
    0.2743   -0.9561   -2.4580 C   0  0  0  0  0  0  0  0  0  0  0  0
    1.4467   -0.9441   -3.2338 C   0  0  0  0  0  0  0  0  0  0  0  0
    1.3729   -1.3788   -4.5644 C   0  0  0  0  0  0  0  0  0  0  0  0
    0.2006   -1.7838   -5.0376 N   0  0  0  0  0  0  0  0  0  0  0  0
   -0.8867   -1.7813   -4.2750 C   0  0  0  0  0  0  0  0  0  0  0  0
   -0.8665   -1.3813   -3.0174 N   0  0  0  0  0  0  0  0  0  0  0  0
   -2.0857   -2.2140   -4.8193 N   0  0  0  0  0  0  0  0  0  0  0  0
   -3.3231   -2.1093   -4.0421 C   0  0  0  0  0  0  0  0  0  0  0  0
   -2.1156   -2.7759   -6.1719 C   0  0  0  0  0  0  0  0  0  0  0  0
   -2.9451   -1.8687   -7.0852 C   0  0  0  0  0  0  0  0  0  0  0  0
   -3.0386   -2.5016   -8.4752 C   0  0  0  0  0  0  0  0  0  0  0  0
   -3.6813   -3.8174   -8.3755 N   0  3  0  0  0  0  0  0  0  0  0  0
   -2.8547   -4.7150   -7.5597 C   0  0  0  0  0  0  0  0  0  0  0  0
   -2.7542   -4.1673   -6.1344 C   0  0  0  0  0  0  0  0  0  0  0  0
   -3.8391   -4.3869   -9.7204 C   0  0  0  0  0  0  0  0  0  0  0  0
    2.5010   -1.3853   -5.3698 N   0  0  0  0  0  0  0  0  0  0  0  0
    2.3876   -1.6836   -6.7203 C   0  0  0  0  0  0  0  0  0  0  0  0
    1.1311   -1.8027   -7.3173 C   0  0  0  0  0  0  0  0  0  0  0  0
    1.0712   -2.1004   -8.6646 C   0  0  0  0  0  0  0  0  0  0  0  0
    2.1991   -2.2621   -9.3420 N   0  0  0  0  0  0  0  0  0  0  0  0
    3.3699   -2.1430   -8.7492 C   0  0  0  0  0  0  0  0  0  0  0  0
    3.4738   -1.8551   -7.4675 N   0  0  0  0  0  0  0  0  0  0  0  0
    2.4491   -0.4716   -2.4278 N   0  0  0  0  0  0  0  0  0  0  0  0
    1.8968   -0.1908   -1.1711 N   0  0  0  0  0  0  0  0  0  0  0  0
    3.8503   -0.2874   -2.8137 C   0  0  0  0  0  0  0  0  0  0  0  0
    4.0616    1.1487   -3.2973 C   0  0  0  0  0  0  0  0  0  0  0  0
    5.4284    1.3284   -3.6737 O   0  0  0  0  0  0  0  0  0  0  0  0
    5.7340    2.6432   -4.1428 C   0  0  0  0  0  0  0  0  0  0  0  0
    7.2160    2.7200   -4.5154 C   0  0  0  0  0  0  0  0  0  0  0  0
    7.4924    1.7894   -5.5228 F   0  0  0  0  0  0  0  0  0  0  0  0
    7.5152    4.0072   -4.9747 F   0  0  0  0  0  0  0  0  0  0  0  0
    7.9953    2.4337   -3.3894 F   0  0  0  0  0  0  0  0  0  0  0  0
   -0.1454    1.8312    0.0196 H   0  0  0  0  0  0  0  0  0  0  0  0
   -1.4847    1.2154   -0.9780 H   0  0  0  0  0  0  0  0  0  0  0  0
   -1.6167    1.1995    0.7970 H   0  0  0  0  0  0  0  0  0  0  0  0
    0.2322   -0.4483    0.9197 H   0  0  0  0  0  0  0  0  0  0  0  0
   -1.1071   -1.0640   -0.0780 H   0  0  0  0  0  0  0  0  0  0  0  0
   -3.7932   -1.1451   -4.2356 H   0  0  0  0  0  0  0  0  0  0  0  0
   -4.0033   -2.9100   -4.3325 H   0  0  0  0  0  0  0  0  0  0  0  0
   -3.0934   -2.1950   -2.9800 H   0  0  0  0  0  0  0  0  0  0  0  0
   -1.0989   -2.8518   -6.5577 H   0  0  0  0  0  0  0  0  0  0  0  0
   -3.9463   -1.7522   -6.6703 H   0  0  0  0  0  0  0  0  0  0  0  0
   -2.4660   -0.8926   -7.1611 H   0  0  0  0  0  0  0  0  0  0  0  0
   -3.6284   -1.8582   -9.1280 H   0  0  0  0  0  0  0  0  0  0  0  0
   -2.0369   -2.6175   -8.8893 H   0  0  0  0  0  0  0  0  0  0  0  0
   -3.3088   -5.7057   -7.5366 H   0  0  0  0  0  0  0  0  0  0  0  0
   -1.8570   -4.7837   -7.9932 H   0  0  0  0  0  0  0  0  0  0  0  0
   -2.1386   -4.8342   -5.5308 H   0  0  0  0  0  0  0  0  0  0  0  0
   -3.7514   -4.0985   -5.6998 H   0  0  0  0  0  0  0  0  0  0  0  0
   -2.8597   -4.4947  -10.1866 H   0  0  0  0  0  0  0  0  0  0  0  0
   -4.3164   -5.3641   -9.6475 H   0  0  0  0  0  0  0  0  0  0  0  0
   -4.4584   -3.7243  -10.3251 H   0  0  0  0  0  0  0  0  0  0  0  0
    3.3697   -1.1813   -4.9894 H   0  0  0  0  0  0  0  0  0  0  0  0
    0.2288   -1.6659   -6.7399 H   0  0  0  0  0  0  0  0  0  0  0  0
    0.1168   -2.2006   -9.1603 H   0  0  0  0  0  0  0  0  0  0  0  0
    4.2693   -2.2812   -9.3308 H   0  0  0  0  0  0  0  0  0  0  0  0
    4.4923   -0.4794   -1.9540 H   0  0  0  0  0  0  0  0  0  0  0  0
    4.1004   -0.9814   -3.6162 H   0  0  0  0  0  0  0  0  0  0  0  0
    3.4197    1.3408   -4.1570 H   0  0  0  0  0  0  0  0  0  0  0  0
    3.8115    1.8428   -2.4948 H   0  0  0  0  0  0  0  0  0  0  0  0
    5.1268    2.8662   -5.0201 H   0  0  0  0  0  0  0  0  0  0  0  0
    5.5186    3.3682   -3.3580 H   0  0  0  0  0  0  0  0  0  0  0  0
   -4.5891   -3.7156   -7.9470 H   0  0  0  0  0  0  0  0  0  0  0  0
  1  2  1  0  0  0  0
  1 36  1  0  0  0  0
  1 37  1  0  0  0  0
  1 38  1  0  0  0  0
  2  3  1  0  0  0  0
  2 39  1  0  0  0  0
  2 40  1  0  0  0  0
  3 27  2  0  0  0  0
  3  4  1  0  0  0  0
  4  9  2  0  0  0  0
  4  5  1  0  0  0  0
  5  6  2  0  0  0  0
  5 26  1  0  0  0  0
  6  7  1  0  0  0  0
  6 19  1  0  0  0  0
  7  8  2  0  0  0  0
  8  9  1  0  0  0  0
  8 10  1  0  0  0  0
 10 11  1  0  0  0  0
 10 12  1  0  0  0  0
 11 41  1  0  0  0  0
 11 42  1  0  0  0  0
 11 43  1  0  0  0  0
 12 17  1  0  0  0  0
 12 13  1  0  0  0  0
 12 44  1  0  0  0  0
 13 14  1  0  0  0  0
 13 45  1  0  0  0  0
 13 46  1  0  0  0  0
 14 15  1  0  0  0  0
 14 47  1  0  0  0  0
 14 48  1  0  0  0  0
 15 16  1  0  0  0  0
 15 18  1  0  0  0  0
 15 66  1  0  0  0  0
 16 17  1  0  0  0  0
 16 49  1  0  0  0  0
 16 50  1  0  0  0  0
 17 51  1  0  0  0  0
 17 52  1  0  0  0  0
 18 53  1  0  0  0  0
 18 54  1  0  0  0  0
 18 55  1  0  0  0  0
 19 20  1  0  0  0  0
 19 56  1  0  0  0  0
 20 25  2  0  0  0  0
 20 21  1  0  0  0  0
 21 22  2  0  0  0  0
 21 57  1  0  0  0  0
 22 23  1  0  0  0  0
 22 58  1  0  0  0  0
 23 24  2  0  0  0  0
 24 25  1  0  0  0  0
 24 59  1  0  0  0  0
 26 27  1  0  0  0  0
 26 28  1  0  0  0  0
 28 29  1  0  0  0  0
 28 60  1  0  0  0  0
 28 61  1  0  0  0  0
 29 30  1  0  0  0  0
 29 62  1  0  0  0  0
 29 63  1  0  0  0  0
 30 31  1  0  0  0  0
 31 32  1  0  0  0  0
 31 64  1  0  0  0  0
 31 65  1  0  0  0  0
 32 33  1  0  0  0  0
 32 34  1  0  0  0  0
 32 35  1  0  0  0  0
M  CHG  1  15   1
M  END
$$$$
CHEMBL282515
  -OEChem-07121202283D

 75 82  0     1  0  0  0  0  0999 V2000
    0.1166    1.0292   -0.0759 C   0  0  0  0  0  0  0  0  0  0  0  0
    0.1825   -0.4341   -0.0502 N   0  0  0  0  0  0  0  0  0  0  0  0
    0.2294   -1.2642   -1.1375 C   0  0  0  0  0  0  0  0  0  0  0  0
    0.2830   -2.5238   -0.6641 C   0  0  0  0  0  0  0  0  0  0  0  0
    0.2692   -2.4644    0.6758 N   0  3  0  0  0  0  0  0  0  0  0  0
    0.2142   -1.2156    1.0507 C   0  0  0  0  0  0  0  0  0  0  0  0
    0.1868   -0.7268    2.4759 C   0  0  0  0  0  0  0  0  0  0  0  0
    1.6184   -0.6147    3.0042 C   0  0  0  0  0  0  0  0  0  0  0  0
    1.5917   -0.1382    4.3935 N   0  3  2  0  0  0  0  0  0  0  0  0
    1.0718    1.2452    4.4352 C   0  0  0  0  0  0  0  0  0  0  0  0
    1.8821    1.9387    5.5585 C   0  0  0  0  0  0  0  0  0  0  0  0
    3.2854    1.3046    5.3698 C   0  0  2  0  0  0  0  0  0  0  0  0
    3.8390    1.8203    4.5852 H   0  0  0  0  0  0  0  0  0  0  0  0
    2.9587   -0.1428    4.9460 C   0  0  0  0  0  0  0  0  0  0  0  0
    4.0355    1.3230    6.6281 N   0  0  0  0  0  0  0  0  0  0  0  0
    3.4629    0.6409    7.7767 C   0  0  0  0  0  0  0  0  0  0  0  0
    4.3697    0.6808    8.9634 C   0  0  0  0  0  0  0  0  0  0  0  0
    4.0028    0.1207    9.9747 O   0  0  0  0  0  0  0  0  0  0  0  0
    5.5566    1.2908    8.9856 N   0  0  0  0  0  0  0  0  0  0  0  0
    6.0758    2.0692    7.8619 C   0  0  1  0  0  0  0  0  0  0  0  0
    7.0652    1.6937    7.6010 H   0  0  0  0  0  0  0  0  0  0  0  0
    5.2052    1.9590    6.6520 C   0  0  0  0  0  0  0  0  0  0  0  0
    5.5863    2.4857    5.6281 O   0  0  0  0  0  0  0  0  0  0  0  0
    6.1997    3.5405    8.2823 C   0  0  0  0  0  0  0  0  0  0  0  0
    6.8463    3.6039    9.6423 C   0  0  0  0  0  0  0  0  0  0  0  0
    7.4788    4.7383   10.2844 C   0  0  0  0  0  0  0  0  0  0  0  0
    7.6868    6.0611    9.8816 C   0  0  0  0  0  0  0  0  0  0  0  0
    8.3399    6.8835   10.7661 C   0  0  0  0  0  0  0  0  0  0  0  0
    8.7773    6.4357   12.0019 C   0  0  0  0  0  0  0  0  0  0  0  0
    8.5836    5.1326   12.4265 C   0  0  0  0  0  0  0  0  0  0  0  0
    7.9226    4.2749   11.5495 C   0  0  0  0  0  0  0  0  0  0  0  0
    7.5738    2.9585   11.6453 N   0  0  0  0  0  0  0  0  0  0  0  0
    7.7521    2.3881   12.4094 H   0  0  0  0  0  0  0  0  0  0  0  0
    6.9337    2.5646   10.5003 C   0  0  0  0  0  0  0  0  0  0  0  0
    6.3957    1.1844   10.1982 C   0  0  1  0  0  0  0  0  0  0  0  0
    7.2216    0.4964   10.0177 H   0  0  0  0  0  0  0  0  0  0  0  0
    5.5634    0.6948   11.3552 C   0  0  0  0  0  0  0  0  0  0  0  0
    5.8051   -0.5530   11.8994 C   0  0  0  0  0  0  0  0  0  0  0  0
    5.0448   -1.0063   12.9611 C   0  0  0  0  0  0  0  0  0  0  0  0
    4.0374   -0.2106   13.4822 C   0  0  0  0  0  0  0  0  0  0  0  0
    3.7939    1.0463   12.9340 C   0  0  0  0  0  0  0  0  0  0  0  0
    4.5638    1.4965   11.8737 C   0  0  0  0  0  0  0  0  0  0  0  0
    2.7633    1.6270   13.6150 O   0  0  0  0  0  0  0  0  0  0  0  0
    2.1114    0.5516   14.3162 C   0  0  0  0  0  0  0  0  0  0  0  0
    3.1594   -0.4172   14.5067 O   0  0  0  0  0  0  0  0  0  0  0  0
    1.1269    1.4384   -0.0790 H   0  0  0  0  0  0  0  0  0  0  0  0
   -0.4095    1.3535   -0.9737 H   0  0  0  0  0  0  0  0  0  0  0  0
   -0.4165    1.3844    0.8060 H   0  0  0  0  0  0  0  0  0  0  0  0
    0.2240   -0.9664   -2.1756 H   0  0  0  0  0  0  0  0  0  0  0  0
    0.3290   -3.4240   -1.2590 H   0  0  0  0  0  0  0  0  0  0  0  0
   -0.2926    0.2513    2.5154 H   0  0  0  0  0  0  0  0  0  0  0  0
   -0.3733   -1.4311    3.0909 H   0  0  0  0  0  0  0  0  0  0  0  0
    2.0979   -1.5928    2.9647 H   0  0  0  0  0  0  0  0  0  0  0  0
    2.1785    0.0897    2.3892 H   0  0  0  0  0  0  0  0  0  0  0  0
    1.2425    1.7436    3.4810 H   0  0  0  0  0  0  0  0  0  0  0  0
    0.0094    1.2441    4.6789 H   0  0  0  0  0  0  0  0  0  0  0  0
    1.9173    3.0174    5.4056 H   0  0  0  0  0  0  0  0  0  0  0  0
    1.4737    1.6981    6.5401 H   0  0  0  0  0  0  0  0  0  0  0  0
    3.0063   -0.8026    5.8123 H   0  0  0  0  0  0  0  0  0  0  0  0
    3.6651   -0.4748    4.1851 H   0  0  0  0  0  0  0  0  0  0  0  0
    2.5180    1.1180    8.0369 H   0  0  0  0  0  0  0  0  0  0  0  0
    3.2716   -0.3990    7.5119 H   0  0  0  0  0  0  0  0  0  0  0  0
    6.8152    4.0763    7.5597 H   0  0  0  0  0  0  0  0  0  0  0  0
    5.2087    3.9923    8.3274 H   0  0  0  0  0  0  0  0  0  0  0  0
    7.3499    6.4189    8.9199 H   0  0  0  0  0  0  0  0  0  0  0  0
    8.5187    7.9121   10.4894 H   0  0  0  0  0  0  0  0  0  0  0  0
    9.2872    7.1270   12.6565 H   0  0  0  0  0  0  0  0  0  0  0  0
    8.9285    4.7962   13.3931 H   0  0  0  0  0  0  0  0  0  0  0  0
    6.5895   -1.1749   11.4939 H   0  0  0  0  0  0  0  0  0  0  0  0
    5.2358   -1.9814   13.3843 H   0  0  0  0  0  0  0  0  0  0  0  0
    4.3802    2.4726   11.4495 H   0  0  0  0  0  0  0  0  0  0  0  0
    1.7295    0.8967   15.2770 H   0  0  0  0  0  0  0  0  0  0  0  0
    1.3073    0.1320   13.7116 H   0  0  0  0  0  0  0  0  0  0  0  0
    0.2992   -3.2289    1.2721 H   0  0  0  0  0  0  0  0  0  0  0  0
    0.9995   -0.7383    4.9478 H   0  0  0  0  0  0  0  0  0  0  0  0
  1  2  1  0  0  0  0
  1 46  1  0  0  0  0
  1 47  1  0  0  0  0
  1 48  1  0  0  0  0
  2  6  1  0  0  0  0
  2  3  1  0  0  0  0
  3  4  2  0  0  0  0
  3 49  1  0  0  0  0
  4  5  1  0  0  0  0
  4 50  1  0  0  0  0
  5  6  2  0  0  0  0
  5 74  1  0  0  0  0
  6  7  1  0  0  0  0
  7  8  1  0  0  0  0
  7 51  1  0  0  0  0
  7 52  1  0  0  0  0
  8  9  1  0  0  0  0
  8 53  1  0  0  0  0
  8 54  1  0  0  0  0
  9 14  1  0  0  0  0
  9 10  1  0  0  0  0
  9 75  1  0  0  0  0
 10 11  1  0  0  0  0
 10 55  1  0  0  0  0
 10 56  1  0  0  0  0
 11 12  1  0  0  0  0
 11 57  1  0  0  0  0
 11 58  1  0  0  0  0
 12 13  1  0  0  0  0
 12 14  1  0  0  0  0
 12 15  1  0  0  0  0
 14 59  1  0  0  0  0
 14 60  1  0  0  0  0
 15 22  1  0  0  0  0
 15 16  1  0  0  0  0
 16 17  1  0  0  0  0
 16 61  1  0  0  0  0
 16 62  1  0  0  0  0
 17 18  2  0  0  0  0
 17 19  1  0  0  0  0
 19 35  1  0  0  0  0
 19 20  1  0  0  0  0
 20 21  1  0  0  0  0
 20 22  1  0  0  0  0
 20 24  1  0  0  0  0
 22 23  2  0  0  0  0
 24 25  1  0  0  0  0
 24 63  1  0  0  0  0
 24 64  1  0  0  0  0
 25 34  2  0  0  0  0
 25 26  1  0  0  0  0
 26 31  2  0  0  0  0
 26 27  1  0  0  0  0
 27 28  2  0  0  0  0
 27 65  1  0  0  0  0
 28 29  1  0  0  0  0
 28 66  1  0  0  0  0
 29 30  2  0  0  0  0
 29 67  1  0  0  0  0
 30 31  1  0  0  0  0
 30 68  1  0  0  0  0
 31 32  1  0  0  0  0
 32 33  1  0  0  0  0
 32 34  1  0  0  0  0
 34 35  1  0  0  0  0
 35 36  1  0  0  0  0
 35 37  1  0  0  0  0
 37 42  2  0  0  0  0
 37 38  1  0  0  0  0
 38 39  2  0  0  0  0
 38 69  1  0  0  0  0
 39 40  1  0  0  0  0
 39 70  1  0  0  0  0
 40 45  1  0  0  0  0
 40 41  2  0  0  0  0
 41 42  1  0  0  0  0
 41 43  1  0  0  0  0
 42 71  1  0  0  0  0
 43 44  1  0  0  0  0
 44 45  1  0  0  0  0
 44 72  1  0  0  0  0
 44 73  1  0  0  0  0
M  CHG  2   5   1   9   1
M  END
$$$$
CHEMBL282515
  -OEChem-07121202283D

 74 81  0     1  0  0  0  0  0999 V2000
   -0.3137    1.7752   -0.1940 C   0  0  0  0  0  0  0  0  0  0  0  0
   -0.2693    0.3114   -0.2336 N   0  0  0  0  0  0  0  0  0  0  0  0
   -0.2835   -0.4716   -1.3563 C   0  0  0  0  0  0  0  0  0  0  0  0
   -0.2283   -1.7510   -0.9397 C   0  0  0  0  0  0  0  0  0  0  0  0
   -0.1818   -1.7493    0.4007 N   0  0  0  0  0  0  0  0  0  0  0  0
   -0.2009   -0.5173    0.8305 C   0  0  0  0  0  0  0  0  0  0  0  0
   -0.1575   -0.0901    2.2750 C   0  0  0  0  0  0  0  0  0  0  0  0
   -1.5835    0.0085    2.8207 C   0  0  0  0  0  0  0  0  0  0  0  0
   -1.5412    0.4248    4.2289 N   0  3  2  0  0  0  0  0  0  0  0  0
   -0.9055   -0.6338    5.0418 C   0  0  0  0  0  0  0  0  0  0  0  0
   -1.6736   -0.6146    6.3869 C   0  0  0  0  0  0  0  0  0  0  0  0
   -3.1224   -0.3209    5.9162 C   0  0  2  0  0  0  0  0  0  0  0  0
   -3.6155   -1.2373    5.5919 H   0  0  0  0  0  0  0  0  0  0  0  0
   -2.9134    0.6374    4.7248 C   0  0  0  0  0  0  0  0  0  0  0  0
   -3.8908    0.3298    6.9803 N   0  0  0  0  0  0  0  0  0  0  0  0
   -3.3996    1.5929    7.5055 C   0  0  0  0  0  0  0  0  0  0  0  0
   -4.3210    2.1722    8.5290 C   0  0  0  0  0  0  0  0  0  0  0  0
   -4.0218    3.2404    9.0193 O   0  0  0  0  0  0  0  0  0  0  0  0
   -5.4515    1.5938    8.9398 N   0  0  0  0  0  0  0  0  0  0  0  0
   -5.8816    0.2710    8.4887 C   0  0  1  0  0  0  0  0  0  0  0  0
   -6.8947    0.3462    8.0937 H   0  0  0  0  0  0  0  0  0  0  0  0
   -5.0019   -0.2674    7.4069 C   0  0  0  0  0  0  0  0  0  0  0  0
   -5.3179   -1.3169    6.8876 O   0  0  0  0  0  0  0  0  0  0  0  0
   -5.8865   -0.6923    9.6840 C   0  0  0  0  0  0  0  0  0  0  0  0
   -6.5499   -0.0112   10.8536 C   0  0  0  0  0  0  0  0  0  0  0  0
   -7.0943   -0.6137   12.0536 C   0  0  0  0  0  0  0  0  0  0  0  0
   -7.1808   -1.9380   12.4940 C   0  0  0  0  0  0  0  0  0  0  0  0
   -7.7770   -2.1487   13.7128 C   0  0  0  0  0  0  0  0  0  0  0  0
   -8.2734   -1.1069   14.4791 C   0  0  0  0  0  0  0  0  0  0  0  0
   -8.1998    0.2128   14.0683 C   0  0  0  0  0  0  0  0  0  0  0  0
   -7.5990    0.4572   12.8350 C   0  0  0  0  0  0  0  0  0  0  0  0
   -7.3661    1.6105   12.1427 N   0  0  0  0  0  0  0  0  0  0  0  0
   -7.6064    2.5006   12.4442 H   0  0  0  0  0  0  0  0  0  0  0  0
   -6.7415    1.3216   10.9585 C   0  0  0  0  0  0  0  0  0  0  0  0
   -6.3183    2.3123    9.8978 C   0  0  1  0  0  0  0  0  0  0  0  0
   -7.1968    2.7011    9.3828 H   0  0  0  0  0  0  0  0  0  0  0  0
   -5.5522    3.4448   10.5316 C   0  0  0  0  0  0  0  0  0  0  0  0
   -5.9098    4.7535   10.2655 C   0  0  0  0  0  0  0  0  0  0  0  0
   -5.2104    5.7957   10.8449 C   0  0  0  0  0  0  0  0  0  0  0  0
   -4.1482    5.5305   11.6939 C   0  0  0  0  0  0  0  0  0  0  0  0
   -3.7880    4.2122   11.9620 C   0  0  0  0  0  0  0  0  0  0  0  0
   -4.4971    3.1727   11.3823 C   0  0  0  0  0  0  0  0  0  0  0  0
   -2.7238    4.2159   12.8168 O   0  0  0  0  0  0  0  0  0  0  0  0
   -2.1793    5.5470   12.7471 C   0  0  0  0  0  0  0  0  0  0  0  0
   -3.3097    6.3602   12.3810 O   0  0  0  0  0  0  0  0  0  0  0  0
    0.7016    2.1705   -0.2251 H   0  0  0  0  0  0  0  0  0  0  0  0
   -0.8740    2.1451   -1.0527 H   0  0  0  0  0  0  0  0  0  0  0  0
   -0.8017    2.0992    0.7252 H   0  0  0  0  0  0  0  0  0  0  0  0
   -0.3302   -0.1291   -2.3795 H   0  0  0  0  0  0  0  0  0  0  0  0
   -0.2226   -2.6252   -1.5739 H   0  0  0  0  0  0  0  0  0  0  0  0
    0.4032   -0.8238    2.8542 H   0  0  0  0  0  0  0  0  0  0  0  0
    0.3290    0.8822    2.3519 H   0  0  0  0  0  0  0  0  0  0  0  0
   -2.1442    0.7421    2.2416 H   0  0  0  0  0  0  0  0  0  0  0  0
   -2.0700   -0.9639    2.7438 H   0  0  0  0  0  0  0  0  0  0  0  0
   -1.0156   -1.6032    4.5558 H   0  0  0  0  0  0  0  0  0  0  0  0
    0.1483   -0.4069    5.2034 H   0  0  0  0  0  0  0  0  0  0  0  0
   -1.6134   -1.5824    6.8848 H   0  0  0  0  0  0  0  0  0  0  0  0
   -1.3051    0.1801    7.0356 H   0  0  0  0  0  0  0  0  0  0  0  0
   -3.0330    1.6696    5.0538 H   0  0  0  0  0  0  0  0  0  0  0  0
   -3.6317    0.4114    3.9368 H   0  0  0  0  0  0  0  0  0  0  0  0
   -2.4222    1.4313    7.9600 H   0  0  0  0  0  0  0  0  0  0  0  0
   -3.2934    2.3008    6.6835 H   0  0  0  0  0  0  0  0  0  0  0  0
   -6.4407   -1.5942    9.4241 H   0  0  0  0  0  0  0  0  0  0  0  0
   -4.8615   -0.9538    9.9467 H   0  0  0  0  0  0  0  0  0  0  0  0
   -6.7972   -2.7566   11.9031 H   0  0  0  0  0  0  0  0  0  0  0  0
   -7.8619   -3.1588   14.0857 H   0  0  0  0  0  0  0  0  0  0  0  0
   -8.7339   -1.3321   15.4297 H   0  0  0  0  0  0  0  0  0  0  0  0
   -8.5897    1.0161   14.6758 H   0  0  0  0  0  0  0  0  0  0  0  0
   -6.7370    4.9621    9.6033 H   0  0  0  0  0  0  0  0  0  0  0  0
   -5.4919    6.8170   10.6353 H   0  0  0  0  0  0  0  0  0  0  0  0
   -4.2228    2.1493   11.5919 H   0  0  0  0  0  0  0  0  0  0  0  0
   -1.7866    5.8515   13.7173 H   0  0  0  0  0  0  0  0  0  0  0  0
   -1.4033    5.6039   11.9838 H   0  0  0  0  0  0  0  0  0  0  0  0
   -1.0127    1.2800    4.3151 H   0  0  0  0  0  0  0  0  0  0  0  0
  1  2  1  0  0  0  0
  1 46  1  0  0  0  0
  1 47  1  0  0  0  0
  1 48  1  0  0  0  0
  2  6  1  0  0  0  0
  2  3  1  0  0  0  0
  3  4  2  0  0  0  0
  3 49  1  0  0  0  0
  4  5  1  0  0  0  0
  4 50  1  0  0  0  0
  5  6  2  0  0  0  0
  6  7  1  0  0  0  0
  7  8  1  0  0  0  0
  7 51  1  0  0  0  0
  7 52  1  0  0  0  0
  8  9  1  0  0  0  0
  8 53  1  0  0  0  0
  8 54  1  0  0  0  0
  9 14  1  0  0  0  0
  9 10  1  0  0  0  0
  9 74  1  0  0  0  0
 10 11  1  0  0  0  0
 10 55  1  0  0  0  0
 10 56  1  0  0  0  0
 11 12  1  0  0  0  0
 11 57  1  0  0  0  0
 11 58  1  0  0  0  0
 12 13  1  0  0  0  0
 12 14  1  0  0  0  0
 12 15  1  0  0  0  0
 14 59  1  0  0  0  0
 14 60  1  0  0  0  0
 15 22  1  0  0  0  0
 15 16  1  0  0  0  0
 16 17  1  0  0  0  0
 16 61  1  0  0  0  0
 16 62  1  0  0  0  0
 17 18  2  0  0  0  0
 17 19  1  0  0  0  0
 19 35  1  0  0  0  0
 19 20  1  0  0  0  0
 20 21  1  0  0  0  0
 20 22  1  0  0  0  0
 20 24  1  0  0  0  0
 22 23  2  0  0  0  0
 24 25  1  0  0  0  0
 24 63  1  0  0  0  0
 24 64  1  0  0  0  0
 25 34  2  0  0  0  0
 25 26  1  0  0  0  0
 26 31  2  0  0  0  0
 26 27  1  0  0  0  0
 27 28  2  0  0  0  0
 27 65  1  0  0  0  0
 28 29  1  0  0  0  0
 28 66  1  0  0  0  0
 29 30  2  0  0  0  0
 29 67  1  0  0  0  0
 30 31  1  0  0  0  0
 30 68  1  0  0  0  0
 31 32  1  0  0  0  0
 32 33  1  0  0  0  0
 32 34  1  0  0  0  0
 34 35  1  0  0  0  0
 35 36  1  0  0  0  0
 35 37  1  0  0  0  0
 37 42  2  0  0  0  0
 37 38  1  0  0  0  0
 38 39  2  0  0  0  0
 38 69  1  0  0  0  0
 39 40  1  0  0  0  0
 39 70  1  0  0  0  0
 40 45  1  0  0  0  0
 40 41  2  0  0  0  0
 41 42  1  0  0  0  0
 41 43  1  0  0  0  0
 42 71  1  0  0  0  0
 43 44  1  0  0  0  0
 44 45  1  0  0  0  0
 44 72  1  0  0  0  0
 44 73  1  0  0  0  0
M  CHG  1   9   1
M  END
$$$$
CHEMBL282515
  -OEChem-07121202283D

 74 81  0     1  0  0  0  0  0999 V2000
    0.1022    1.0162   -0.0826 C   0  0  0  0  0  0  0  0  0  0  0  0
    0.1656   -0.4472   -0.0535 N   0  0  0  0  0  0  0  0  0  0  0  0
    0.2107   -1.2799   -1.1389 C   0  0  0  0  0  0  0  0  0  0  0  0
    0.2623   -2.5385   -0.6625 C   0  0  0  0  0  0  0  0  0  0  0  0
    0.2491   -2.4759    0.6773 N   0  3  0  0  0  0  0  0  0  0  0  0
    0.1963   -1.2261    1.0492 C   0  0  0  0  0  0  0  0  0  0  0  0
    0.1702   -0.7339    2.4733 C   0  0  0  0  0  0  0  0  0  0  0  0
    1.6021   -0.6230    3.0009 C   0  0  0  0  0  0  0  0  0  0  0  0
    1.5767   -0.1432    4.3891 N   0  0  2  0  0  0  0  0  0  0  0  0
    1.1374    1.2670    4.4543 C   0  0  0  0  0  0  0  0  0  0  0  0
    1.9271    1.8728    5.6413 C   0  0  0  0  0  0  0  0  0  0  0  0
    3.2987    1.1616    5.5007 C   0  0  2  0  0  0  0  0  0  0  0  0
    3.9219    1.6684    4.7640 H   0  0  0  0  0  0  0  0  0  0  0  0
    2.9102   -0.2487    5.0091 C   0  0  0  0  0  0  0  0  0  0  0  0
    3.9817    1.0930    6.7950 N   0  0  0  0  0  0  0  0  0  0  0  0
    3.3106    0.4094    7.8880 C   0  0  0  0  0  0  0  0  0  0  0  0
    4.1548    0.3552    9.1196 C   0  0  0  0  0  0  0  0  0  0  0  0
    3.7031   -0.2146   10.0902 O   0  0  0  0  0  0  0  0  0  0  0  0
    5.3727    0.8912    9.2234 N   0  0  0  0  0  0  0  0  0  0  0  0
    5.9947    1.6734    8.1560 C   0  0  1  0  0  0  0  0  0  0  0  0
    6.9728    1.2475    7.9319 H   0  0  0  0  0  0  0  0  0  0  0  0
    5.1838    1.6560    6.9006 C   0  0  0  0  0  0  0  0  0  0  0  0
    5.6483    2.1921    5.9169 O   0  0  0  0  0  0  0  0  0  0  0  0
    6.1827    3.1199    8.6348 C   0  0  0  0  0  0  0  0  0  0  0  0
    6.7598    3.0992   10.0271 C   0  0  0  0  0  0  0  0  0  0  0  0
    7.4232    4.1715   10.7406 C   0  0  0  0  0  0  0  0  0  0  0  0
    7.7294    5.4918   10.3967 C   0  0  0  0  0  0  0  0  0  0  0  0
    8.3825    6.2437   11.3420 C   0  0  0  0  0  0  0  0  0  0  0  0
    8.7274    5.7297   12.5813 C   0  0  0  0  0  0  0  0  0  0  0  0
    8.4356    4.4274   12.9484 C   0  0  0  0  0  0  0  0  0  0  0  0
    7.7723    3.6406   12.0089 C   0  0  0  0  0  0  0  0  0  0  0  0
    7.3422    2.3453   12.0396 N   0  0  0  0  0  0  0  0  0  0  0  0
    7.4464    1.7403   12.7906 H   0  0  0  0  0  0  0  0  0  0  0  0
    6.7409    2.0288   10.8504 C   0  0  0  0  0  0  0  0  0  0  0  0
    6.1393    0.6944   10.4720 C   0  0  1  0  0  0  0  0  0  0  0  0
    6.9317   -0.0360   10.3087 H   0  0  0  0  0  0  0  0  0  0  0  0
    5.2203    0.2181   11.5673 C   0  0  0  0  0  0  0  0  0  0  0  0
    5.3595   -1.0592   12.0777 C   0  0  0  0  0  0  0  0  0  0  0  0
    4.5192   -1.5004   13.0828 C   0  0  0  0  0  0  0  0  0  0  0  0
    3.5345   -0.6628   13.5809 C   0  0  0  0  0  0  0  0  0  0  0  0
    3.3942    0.6239   13.0667 C   0  0  0  0  0  0  0  0  0  0  0  0
    4.2437    1.0614   12.0634 C   0  0  0  0  0  0  0  0  0  0  0  0
    2.3652    1.2432   13.7154 O   0  0  0  0  0  0  0  0  0  0  0  0
    1.6155    0.1866   14.3437 C   0  0  0  0  0  0  0  0  0  0  0  0
    2.5934   -0.8496   14.5518 O   0  0  0  0  0  0  0  0  0  0  0  0
    1.1132    1.4236   -0.0869 H   0  0  0  0  0  0  0  0  0  0  0  0
   -0.4236    1.3393   -0.9810 H   0  0  0  0  0  0  0  0  0  0  0  0
   -0.4301    1.3744    0.7986 H   0  0  0  0  0  0  0  0  0  0  0  0
    0.2055   -0.9845   -2.1777 H   0  0  0  0  0  0  0  0  0  0  0  0
    0.3066   -3.4402   -1.2553 H   0  0  0  0  0  0  0  0  0  0  0  0
   -0.3076    0.2451    2.5107 H   0  0  0  0  0  0  0  0  0  0  0  0
   -0.3909   -1.4359    3.0902 H   0  0  0  0  0  0  0  0  0  0  0  0
    2.0799   -1.6020    2.9636 H   0  0  0  0  0  0  0  0  0  0  0  0
    2.1632    0.0790    2.3841 H   0  0  0  0  0  0  0  0  0  0  0  0
    1.3869    1.7854    3.5285 H   0  0  0  0  0  0  0  0  0  0  0  0
    0.0655    1.3221    4.6441 H   0  0  0  0  0  0  0  0  0  0  0  0
    2.0335    2.9518    5.5293 H   0  0  0  0  0  0  0  0  0  0  0  0
    1.4544    1.6252    6.5917 H   0  0  0  0  0  0  0  0  0  0  0  0
    2.8736   -0.9383    5.8525 H   0  0  0  0  0  0  0  0  0  0  0  0
    3.6347   -0.5975    4.2733 H   0  0  0  0  0  0  0  0  0  0  0  0
    2.3830    0.9339    8.1174 H   0  0  0  0  0  0  0  0  0  0  0  0
    3.0727   -0.6077    7.5767 H   0  0  0  0  0  0  0  0  0  0  0  0
    6.8656    3.6410    7.9639 H   0  0  0  0  0  0  0  0  0  0  0  0
    5.2190    3.6290    8.6462 H   0  0  0  0  0  0  0  0  0  0  0  0
    7.4649    5.9008    9.4328 H   0  0  0  0  0  0  0  0  0  0  0  0
    8.6356    7.2681   11.1119 H   0  0  0  0  0  0  0  0  0  0  0  0
    9.2421    6.3669   13.2852 H   0  0  0  0  0  0  0  0  0  0  0  0
    8.7090    4.0392   13.9183 H   0  0  0  0  0  0  0  0  0  0  0  0
    6.1261   -1.7137   11.6901 H   0  0  0  0  0  0  0  0  0  0  0  0
    4.6302   -2.4987   13.4796 H   0  0  0  0  0  0  0  0  0  0  0  0
    4.1402    2.0602   11.6659 H   0  0  0  0  0  0  0  0  0  0  0  0
    1.2047    0.5223   15.2959 H   0  0  0  0  0  0  0  0  0  0  0  0
    0.8209   -0.1634   13.6848 H   0  0  0  0  0  0  0  0  0  0  0  0
    0.2779   -3.2390    1.2754 H   0  0  0  0  0  0  0  0  0  0  0  0
  1  2  1  0  0  0  0
  1 46  1  0  0  0  0
  1 47  1  0  0  0  0
  1 48  1  0  0  0  0
  2  6  1  0  0  0  0
  2  3  1  0  0  0  0
  3  4  2  0  0  0  0
  3 49  1  0  0  0  0
  4  5  1  0  0  0  0
  4 50  1  0  0  0  0
  5  6  2  0  0  0  0
  5 74  1  0  0  0  0
  6  7  1  0  0  0  0
  7  8  1  0  0  0  0
  7 51  1  0  0  0  0
  7 52  1  0  0  0  0
  8  9  1  0  0  0  0
  8 53  1  0  0  0  0
  8 54  1  0  0  0  0
  9 14  1  0  0  0  0
  9 10  1  0  0  0  0
 10 11  1  0  0  0  0
 10 55  1  0  0  0  0
 10 56  1  0  0  0  0
 11 12  1  0  0  0  0
 11 57  1  0  0  0  0
 11 58  1  0  0  0  0
 12 13  1  0  0  0  0
 12 14  1  0  0  0  0
 12 15  1  0  0  0  0
 14 59  1  0  0  0  0
 14 60  1  0  0  0  0
 15 22  1  0  0  0  0
 15 16  1  0  0  0  0
 16 17  1  0  0  0  0
 16 61  1  0  0  0  0
 16 62  1  0  0  0  0
 17 18  2  0  0  0  0
 17 19  1  0  0  0  0
 19 35  1  0  0  0  0
 19 20  1  0  0  0  0
 20 21  1  0  0  0  0
 20 22  1  0  0  0  0
 20 24  1  0  0  0  0
 22 23  2  0  0  0  0
 24 25  1  0  0  0  0
 24 63  1  0  0  0  0
 24 64  1  0  0  0  0
 25 34  2  0  0  0  0
 25 26  1  0  0  0  0
 26 31  2  0  0  0  0
 26 27  1  0  0  0  0
 27 28  2  0  0  0  0
 27 65  1  0  0  0  0
 28 29  1  0  0  0  0
 28 66  1  0  0  0  0
 29 30  2  0  0  0  0
 29 67  1  0  0  0  0
 30 31  1  0  0  0  0
 30 68  1  0  0  0  0
 31 32  1  0  0  0  0
 32 33  1  0  0  0  0
 32 34  1  0  0  0  0
 34 35  1  0  0  0  0
 35 36  1  0  0  0  0
 35 37  1  0  0  0  0
 37 42  2  0  0  0  0
 37 38  1  0  0  0  0
 38 39  2  0  0  0  0
 38 69  1  0  0  0  0
 39 40  1  0  0  0  0
 39 70  1  0  0  0  0
 40 45  1  0  0  0  0
 40 41  2  0  0  0  0
 41 42  1  0  0  0  0
 41 43  1  0  0  0  0
 42 71  1  0  0  0  0
 43 44  1  0  0  0  0
 44 45  1  0  0  0  0
 44 72  1  0  0  0  0
 44 73  1  0  0  0  0
M  CHG  1   5   1
M  END
$$$$
CHEMBL158374
  -OEChem-07121202283D

 53 58  0     1  0  0  0  0  0999 V2000
   -0.0167    1.3798    0.0096 C   0  0  0  0  0  0  0  0  0  0  0  0
    1.1681    2.0952    0.0022 C   0  0  0  0  0  0  0  0  0  0  0  0
    2.3774    1.4330   -0.0134 C   0  0  0  0  0  0  0  0  0  0  0  0
    2.4047    0.0349   -0.0211 C   0  0  0  0  0  0  0  0  0  0  0  0
    1.2034   -0.6808   -0.0130 C   0  0  0  0  0  0  0  0  0  0  0  0
    0.0021   -0.0041    0.0020 C   0  0  0  0  0  0  0  0  0  0  0  0
    3.6915   -0.6798   -0.0381 C   0  0  0  0  0  0  0  0  0  0  0  0
    3.7139   -2.0277   -0.0455 C   0  0  0  0  0  0  0  0  0  0  0  0
    4.9939   -2.7387   -0.0625 C   0  0  0  0  0  0  0  0  0  0  0  0
    6.0375   -2.1128   -0.0699 O   0  0  0  0  0  0  0  0  0  0  0  0
    5.0162   -4.0862   -0.0699 N   0  0  0  0  0  0  0  0  0  0  0  0
    3.8575   -4.9852   -0.0692 C   0  0  0  0  0  0  0  0  0  0  0  0
    4.3815   -6.3999   -0.0803 C   0  0  0  0  0  0  0  0  0  0  0  0
    3.6821   -7.6323   -0.0845 C   0  0  0  0  0  0  0  0  0  0  0  0
    4.4704   -8.8753   -0.0965 C   0  0  0  0  0  0  0  0  0  0  0  0
    3.8595  -10.1289   -0.1019 C   0  0  0  0  0  0  0  0  0  0  0  0
    4.6309  -11.2575   -0.1135 C   0  0  0  0  0  0  0  0  0  0  0  0
    6.0160  -11.1645   -0.1200 C   0  0  0  0  0  0  0  0  0  0  0  0
    6.6389   -9.9360   -0.1144 C   0  0  0  0  0  0  0  0  0  0  0  0
    5.8725   -8.7735   -0.1031 C   0  0  0  0  0  0  0  0  0  0  0  0
    6.4608   -7.5316   -0.0982 N   0  0  0  0  0  0  0  0  0  0  0  0
    5.7299   -6.3823   -0.0872 C   0  0  0  0  0  0  0  0  0  0  0  0
    6.2036   -4.9459   -0.0867 C   0  0  2  0  0  0  0  0  0  0  0  0
    7.0395   -4.6867    1.1401 C   0  0  0  0  0  0  0  0  0  0  0  0
    6.4254   -4.4599    2.3579 C   0  0  0  0  0  0  0  0  0  0  0  0
    7.1879   -4.2221    3.4862 C   0  0  0  0  0  0  0  0  0  0  0  0
    8.5706   -4.2102    3.3988 C   0  0  0  0  0  0  0  0  0  0  0  0
    9.1891   -4.4387    2.1721 C   0  0  0  0  0  0  0  0  0  0  0  0
    8.4187   -4.6820    1.0466 C   0  0  0  0  0  0  0  0  0  0  0  0
   10.5414   -4.3757    2.3470 O   0  0  0  0  0  0  0  0  0  0  0  0
   10.7354   -3.7036    3.6056 C   0  0  0  0  0  0  0  0  0  0  0  0
    9.5353   -4.0042    4.3422 O   0  0  0  0  0  0  0  0  0  0  0  0
    2.4625   -7.6622   -0.0779 O   0  0  0  0  0  0  0  0  0  0  0  0
   -0.9607    1.9041    0.0260 H   0  0  0  0  0  0  0  0  0  0  0  0
    1.1453    3.1749    0.0081 H   0  0  0  0  0  0  0  0  0  0  0  0
    3.3011    1.9926   -0.0199 H   0  0  0  0  0  0  0  0  0  0  0  0
    1.2165   -1.7607   -0.0192 H   0  0  0  0  0  0  0  0  0  0  0  0
   -0.9266   -0.5554    0.0082 H   0  0  0  0  0  0  0  0  0  0  0  0
    4.6177   -0.1244   -0.0447 H   0  0  0  0  0  0  0  0  0  0  0  0
    2.7877   -2.5832   -0.0390 H   0  0  0  0  0  0  0  0  0  0  0  0
    3.2605   -4.8188    0.8274 H   0  0  0  0  0  0  0  0  0  0  0  0
    3.2512   -4.8082   -0.9575 H   0  0  0  0  0  0  0  0  0  0  0  0
    2.7824  -10.2078   -0.0966 H   0  0  0  0  0  0  0  0  0  0  0  0
    4.1591  -12.2290   -0.1174 H   0  0  0  0  0  0  0  0  0  0  0  0
    6.6117  -12.0653   -0.1291 H   0  0  0  0  0  0  0  0  0  0  0  0
    7.7172   -9.8746   -0.1195 H   0  0  0  0  0  0  0  0  0  0  0  0
    6.7905   -4.7480   -0.9836 H   0  0  0  0  0  0  0  0  0  0  0  0
    5.3477   -4.4681    2.4277 H   0  0  0  0  0  0  0  0  0  0  0  0
    6.7056   -4.0452    4.4361 H   0  0  0  0  0  0  0  0  0  0  0  0
    8.8958   -4.8639    0.0949 H   0  0  0  0  0  0  0  0  0  0  0  0
   11.6104   -4.1002    4.1206 H   0  0  0  0  0  0  0  0  0  0  0  0
   10.8331   -2.6286    3.4546 H   0  0  0  0  0  0  0  0  0  0  0  0
    7.4290   -7.4715   -0.1027 H   0  0  0  0  0  0  0  0  0  0  0  0
  1  6  2  0  0  0  0
  1  2  1  0  0  0  0
  1 34  1  0  0  0  0
  2  3  2  0  0  0  0
  2 35  1  0  0  0  0
  3  4  1  0  0  0  0
  3 36  1  0  0  0  0
  4  5  2  0  0  0  0
  4  7  1  0  0  0  0
  5  6  1  0  0  0  0
  5 37  1  0  0  0  0
  6 38  1  0  0  0  0
  7  8  2  0  0  0  0
  7 39  1  0  0  0  0
  8  9  1  0  0  0  0
  8 40  1  0  0  0  0
  9 10  2  0  0  0  0
  9 11  1  0  0  0  0
 11 23  1  0  0  0  0
 11 12  1  0  0  0  0
 12 13  1  0  0  0  0
 12 41  1  0  0  0  0
 12 42  1  0  0  0  0
 13 22  2  0  0  0  0
 13 14  1  0  0  0  0
 14 15  1  0  0  0  0
 14 33  2  0  0  0  0
 15 20  2  0  0  0  0
 15 16  1  0  0  0  0
 16 17  2  0  0  0  0
 16 43  1  0  0  0  0
 17 18  1  0  0  0  0
 17 44  1  0  0  0  0
 18 19  2  0  0  0  0
 18 45  1  0  0  0  0
 19 20  1  0  0  0  0
 19 46  1  0  0  0  0
 20 21  1  0  0  0  0
 21 22  1  0  0  0  0
 21 53  1  0  0  0  0
 22 23  1  0  0  0  0
 23 24  1  0  0  0  0
 23 47  1  0  0  0  0
 24 29  2  0  0  0  0
 24 25  1  0  0  0  0
 25 26  2  0  0  0  0
 25 48  1  0  0  0  0
 26 27  1  0  0  0  0
 26 49  1  0  0  0  0
 27 32  1  0  0  0  0
 27 28  2  0  0  0  0
 28 29  1  0  0  0  0
 28 30  1  0  0  0  0
 29 50  1  0  0  0  0
 30 31  1  0  0  0  0
 31 32  1  0  0  0  0
 31 51  1  0  0  0  0
 31 52  1  0  0  0  0
M  END
$$$$
CHEMBL158374
  -OEChem-07121202283D

 53 58  0     1  0  0  0  0  0999 V2000
   -0.0167    1.3798    0.0096 C   0  0  0  0  0  0  0  0  0  0  0  0
    1.1681    2.0952    0.0022 C   0  0  0  0  0  0  0  0  0  0  0  0
    2.3774    1.4330   -0.0134 C   0  0  0  0  0  0  0  0  0  0  0  0
    2.4047    0.0349   -0.0211 C   0  0  0  0  0  0  0  0  0  0  0  0
    1.2034   -0.6808   -0.0130 C   0  0  0  0  0  0  0  0  0  0  0  0
    0.0021   -0.0041    0.0020 C   0  0  0  0  0  0  0  0  0  0  0  0
    3.6915   -0.6798   -0.0381 C   0  0  0  0  0  0  0  0  0  0  0  0
    3.7139   -2.0277   -0.0455 C   0  0  0  0  0  0  0  0  0  0  0  0
    4.9939   -2.7387   -0.0625 C   0  0  0  0  0  0  0  0  0  0  0  0
    6.0375   -2.1128   -0.0699 O   0  0  0  0  0  0  0  0  0  0  0  0
    5.0162   -4.0862   -0.0699 N   0  0  0  0  0  0  0  0  0  0  0  0
    3.8575   -4.9852   -0.0692 C   0  0  0  0  0  0  0  0  0  0  0  0
    4.3815   -6.3999   -0.0803 C   0  0  0  0  0  0  0  0  0  0  0  0
    3.6821   -7.6323   -0.0845 C   0  0  0  0  0  0  0  0  0  0  0  0
    4.4704   -8.8753   -0.0965 C   0  0  0  0  0  0  0  0  0  0  0  0
    3.8595  -10.1289   -0.1019 C   0  0  0  0  0  0  0  0  0  0  0  0
    4.6309  -11.2575   -0.1135 C   0  0  0  0  0  0  0  0  0  0  0  0
    6.0160  -11.1645   -0.1200 C   0  0  0  0  0  0  0  0  0  0  0  0
    6.6389   -9.9360   -0.1144 C   0  0  0  0  0  0  0  0  0  0  0  0
    5.8725   -8.7735   -0.1031 C   0  0  0  0  0  0  0  0  0  0  0  0
    6.4608   -7.5316   -0.0982 N   0  0  0  0  0  0  0  0  0  0  0  0
    5.7299   -6.3823   -0.0872 C   0  0  0  0  0  0  0  0  0  0  0  0
    6.2036   -4.9459   -0.0867 C   0  0  1  0  0  0  0  0  0  0  0  0
    7.0150   -4.6723   -1.3267 C   0  0  0  0  0  0  0  0  0  0  0  0
    6.3769   -4.4200   -2.5269 C   0  0  0  0  0  0  0  0  0  0  0  0
    7.1168   -4.1680   -3.6670 C   0  0  0  0  0  0  0  0  0  0  0  0
    8.5011   -4.1682   -3.6093 C   0  0  0  0  0  0  0  0  0  0  0  0
    9.1440   -4.4224   -2.4003 C   0  0  0  0  0  0  0  0  0  0  0  0
    8.3958   -4.6685   -1.2605 C   0  0  0  0  0  0  0  0  0  0  0  0
   10.4927   -4.3670   -2.6033 O   0  0  0  0  0  0  0  0  0  0  0  0
   10.6721   -4.4809   -4.0274 C   0  0  0  0  0  0  0  0  0  0  0  0
    9.4470   -3.9534   -4.5697 O   0  0  0  0  0  0  0  0  0  0  0  0
    2.4625   -7.6622   -0.0779 O   0  0  0  0  0  0  0  0  0  0  0  0
   -0.9607    1.9041    0.0260 H   0  0  0  0  0  0  0  0  0  0  0  0
    1.1453    3.1749    0.0081 H   0  0  0  0  0  0  0  0  0  0  0  0
    3.3011    1.9926   -0.0199 H   0  0  0  0  0  0  0  0  0  0  0  0
    1.2165   -1.7607   -0.0192 H   0  0  0  0  0  0  0  0  0  0  0  0
   -0.9266   -0.5554    0.0082 H   0  0  0  0  0  0  0  0  0  0  0  0
    4.6177   -0.1244   -0.0447 H   0  0  0  0  0  0  0  0  0  0  0  0
    2.7877   -2.5832   -0.0390 H   0  0  0  0  0  0  0  0  0  0  0  0
    3.2605   -4.8188    0.8274 H   0  0  0  0  0  0  0  0  0  0  0  0
    3.2512   -4.8082   -0.9575 H   0  0  0  0  0  0  0  0  0  0  0  0
    2.7824  -10.2078   -0.0966 H   0  0  0  0  0  0  0  0  0  0  0  0
    4.1591  -12.2290   -0.1174 H   0  0  0  0  0  0  0  0  0  0  0  0
    6.6117  -12.0653   -0.1291 H   0  0  0  0  0  0  0  0  0  0  0  0
    7.7172   -9.8746   -0.1195 H   0  0  0  0  0  0  0  0  0  0  0  0
    6.8082   -4.7585    0.8007 H   0  0  0  0  0  0  0  0  0  0  0  0
    5.2979   -4.4202   -2.5739 H   0  0  0  0  0  0  0  0  0  0  0  0
    6.6157   -3.9711   -4.6032 H   0  0  0  0  0  0  0  0  0  0  0  0
    8.8916   -4.8615   -0.3207 H   0  0  0  0  0  0  0  0  0  0  0  0
   11.5239   -3.8848   -4.3550 H   0  0  0  0  0  0  0  0  0  0  0  0
   10.8003   -5.5244   -4.3151 H   0  0  0  0  0  0  0  0  0  0  0  0
    7.4290   -7.4715   -0.1027 H   0  0  0  0  0  0  0  0  0  0  0  0
  1  6  2  0  0  0  0
  1  2  1  0  0  0  0
  1 34  1  0  0  0  0
  2  3  2  0  0  0  0
  2 35  1  0  0  0  0
  3  4  1  0  0  0  0
  3 36  1  0  0  0  0
  4  5  2  0  0  0  0
  4  7  1  0  0  0  0
  5  6  1  0  0  0  0
  5 37  1  0  0  0  0
  6 38  1  0  0  0  0
  7  8  2  0  0  0  0
  7 39  1  0  0  0  0
  8  9  1  0  0  0  0
  8 40  1  0  0  0  0
  9 10  2  0  0  0  0
  9 11  1  0  0  0  0
 11 23  1  0  0  0  0
 11 12  1  0  0  0  0
 12 13  1  0  0  0  0
 12 41  1  0  0  0  0
 12 42  1  0  0  0  0
 13 22  2  0  0  0  0
 13 14  1  0  0  0  0
 14 15  1  0  0  0  0
 14 33  2  0  0  0  0
 15 20  2  0  0  0  0
 15 16  1  0  0  0  0
 16 17  2  0  0  0  0
 16 43  1  0  0  0  0
 17 18  1  0  0  0  0
 17 44  1  0  0  0  0
 18 19  2  0  0  0  0
 18 45  1  0  0  0  0
 19 20  1  0  0  0  0
 19 46  1  0  0  0  0
 20 21  1  0  0  0  0
 21 22  1  0  0  0  0
 21 53  1  0  0  0  0
 22 23  1  0  0  0  0
 23 24  1  0  0  0  0
 23 47  1  0  0  0  0
 24 29  2  0  0  0  0
 24 25  1  0  0  0  0
 25 26  2  0  0  0  0
 25 48  1  0  0  0  0
 26 27  1  0  0  0  0
 26 49  1  0  0  0  0
 27 32  1  0  0  0  0
 27 28  2  0  0  0  0
 28 29  1  0  0  0  0
 28 30  1  0  0  0  0
 29 50  1  0  0  0  0
 30 31  1  0  0  0  0
 31 32  1  0  0  0  0
 31 51  1  0  0  0  0
 31 52  1  0  0  0  0
M  END
$$$$
